data_mof_unit_55260.cif
_audit_creation_date              2013-03-05T15:41:17-0500
_audit_creation_method            fapswitch 2.2
_symmetry_space_group_name_H-M    P1
_symmetry_Int_Tables_number       1
_space_group_crystal_system       triclinic
_cell_length_a                    16.884145
_cell_length_b                    16.764252
_cell_length_c                    16.806552
_cell_angle_alpha                 65.872962
_cell_angle_beta                  65.744378
_cell_angle_gamma                 65.295314
_cell_volume                      3775.34609631

loop_
_atom_site_label
_atom_site_type_symbol
_atom_site_description
_atom_site_fract_x
_atom_site_fract_y
_atom_site_fract_z
_atom_type_partial_charge
O1    O     O_R   0.982940 0.138950 0.510160 -0.662647
O2    O     O_R   0.017060 0.861050 0.489840 -0.639181
O3    O     O_R   0.138950 0.510160 0.982940 -0.621258
O4    O     O_R   0.861050 0.489840 0.017060 -0.648907
O5    O     O_R   0.510160 0.982940 0.138950 -0.652030
O6    O     O_R   0.489840 0.017060 0.861050 -0.648047
O7    O     O_R   0.489840 0.861050 0.017060 -0.626821
O8    O     O_R   0.510160 0.138950 0.982940 -0.631139
O9    O     O_R   0.017060 0.489840 0.861050 -0.628002
O10   O     O_R   0.982940 0.510160 0.138950 -0.651348
O11   O     O_R   0.861050 0.017060 0.489840 -0.610645
O12   O     O_R   0.138950 0.982940 0.510160 -0.622445
C1    C     C_R   0.289251 0.048789 0.423863 0.018242
C2    C     C_R   0.675667 0.010397 0.566146 -0.059924
C3    C     C_R   0.960547 0.458771 0.322663 -0.024823
C4    C     C_R   0.011135 0.569401 0.679605 -0.024917
C5    C     C_R   0.442899 0.311174 0.002629 0.024148
C6    C     C_R   0.585288 0.687485 0.975092 -0.029848
C7    C     C_R   0.531388 0.073946 0.670459 0.013073
C8    C     C_R   0.431972 0.976098 0.327303 -0.034603
C9    C     C_R   0.680936 0.539459 0.043053 0.009755
C10   C     C_R   0.329157 0.457913 0.956757 -0.023924
C11   C     C_R   0.074619 0.669012 0.533526 -0.037268
C12   C     C_R   0.948898 0.329627 0.460319 0.002713
O13   O     O_R   0.867700 0.025880 0.612340 -0.631914
O14   O     O_R   0.132300 0.974120 0.387660 -0.659563
O15   O     O_R   0.025880 0.612340 0.867700 -0.635336
O16   O     O_R   0.974120 0.387660 0.132300 -0.631276
O17   O     O_R   0.612340 0.867700 0.025880 -0.626858
O18   O     O_R   0.387660 0.132300 0.974120 -0.635264
O19   O     O_R   0.387660 0.974120 0.132300 -0.608400
O20   O     O_R   0.612340 0.025880 0.867700 -0.611068
O21   O     O_R   0.132300 0.387660 0.974120 -0.613325
O22   O     O_R   0.867700 0.612340 0.025880 -0.617032
O23   O     O_R   0.974120 0.132300 0.387660 -0.639250
O24   O     O_R   0.025880 0.867700 0.612340 -0.607423
C13   C     C_R   0.964405 0.180462 0.437020 0.821777
C14   C     C_R   0.042249 0.820218 0.560192 0.916853
C15   C     C_R   0.179618 0.436050 0.967865 0.910852
C16   C     C_R   0.820620 0.562345 0.037431 0.866706
C17   C     C_R   0.430886 0.975411 0.177767 0.892659
C18   C     C_R   0.561285 0.038971 0.820550 0.868221
C19   C     C_R   0.570115 0.823110 0.019863 0.908968
C20   C     C_R   0.428461 0.175902 0.985175 0.853389
C21   C     C_R   0.028750 0.567267 0.821172 0.895017
C22   C     C_R   0.964976 0.436968 0.179737 0.879129
C23   C     C_R   0.821039 0.025169 0.568319 0.912696
C24   C     C_R   0.159348 0.009455 0.424392 0.908814
C25   C     C_R   0.384673 0.015204 0.400489 0.002808
C26   C     C_R   0.578588 0.041144 0.593003 -0.005242
C27   C     C_R   0.967248 0.414572 0.412195 -0.009079
C28   C     C_R   0.040448 0.593189 0.583698 0.003565
C29   C     C_R   0.416857 0.407967 0.971448 -0.006042
C30   C     C_R   0.613147 0.590733 0.998281 -0.005033
C31   C     C_R   0.243609 0.035984 0.376496 -0.192250
C32   C     C_R   0.722453 0.034599 0.604382 -0.145982
C33   C     C_R   0.945117 0.410494 0.279019 -0.139192
C34   C     C_R   0.040066 0.604618 0.723659 -0.189409
C35   C     C_R   0.388297 0.267061 0.001685 -0.193262
C36   C     C_R   0.611281 0.728071 0.018288 -0.138316
C37   C     C_R   0.585253 0.068682 0.720421 -0.164331
C38   C     C_R   0.383010 0.988919 0.267356 -0.155608
C39   C     C_R   0.721973 0.588455 0.058280 -0.167022
C40   C     C_R   0.272669 0.402139 0.973541 -0.104581
C41   C     C_R   0.075714 0.718945 0.584672 -0.136593
C42   C     C_R   0.942154 0.281583 0.410446 -0.156306
Zn1   Zn    Zn3+2 0.004880 0.004880 0.583590 0.901489
Zn2   Zn    Zn3+2 0.995120 0.995120 0.416410 0.879919
Zn3   Zn    Zn3+2 0.004880 0.583590 0.004880 0.881102
Zn4   Zn    Zn3+2 0.995120 0.416410 0.995120 0.899159
Zn5   Zn    Zn3+2 0.583590 0.004880 0.004880 0.901212
Zn6   Zn    Zn3+2 0.416410 0.995120 0.995120 0.881966
C43   C     C_R   0.434604 0.113260 0.692282 0.113745
C44   C     C_R   0.526578 0.928683 0.316027 0.134187
C45   C     C_R   0.101659 0.693508 0.436091 0.113624
C46   C     C_R   0.928175 0.302391 0.557183 0.122892
C47   C     C_R   0.705539 0.442173 0.070667 0.134038
C48   C     C_R   0.302100 0.556960 0.938705 0.097629
C49   C     C_R   0.243108 0.097549 0.490358 0.107431
C50   C     C_R   0.720484 0.954558 0.505860 0.133727
C51   C     C_R   0.514714 0.263220 0.043729 0.125118
C52   C     C_R   0.530957 0.736644 0.913556 0.104345
C53   C     C_R   0.963504 0.551696 0.283989 0.134803
C54   C     C_R   0.958084 0.507783 0.727142 0.126456
C55   C     C_R   0.286808 0.029250 0.288050 0.053548
C56   C     C_R   0.670791 0.076871 0.673782 0.095955
C57   C     C_R   0.920793 0.330523 0.329803 0.093356
C58   C     C_R   0.084258 0.672485 0.671879 0.090659
C59   C     C_R   0.296221 0.311228 0.024212 0.066867
C60   C     C_R   0.671731 0.672732 0.070345 0.098261
H1    H     H_    0.249171 0.156424 0.731087 0.152942
H2    H     H_    0.709851 0.900940 0.263730 0.145362
H3    H     H_    0.098788 0.751899 0.258107 0.147238
H4    H     H_    0.928388 0.246178 0.735001 0.150662
H5    H     H_    0.771143 0.262145 0.072022 0.147582
H6    H     H_    0.297647 0.734980 0.838546 0.160519
H7    H     H_    0.169151 0.150553 0.645865 0.147674
H8    H     H_    0.791411 0.918665 0.340106 0.152893
H9    H     H_    0.684964 0.183521 0.064109 0.141662
H10   H     H_    0.390069 0.813918 0.836740 0.149053
H11   H     H_    0.039900 0.691183 0.193361 0.142902
H12   H     H_    0.930917 0.340532 0.810262 0.142848
C61   C     C_R   0.673082 0.961065 0.449037 0.095470
C62   C     C_R   0.289428 0.091475 0.547937 0.107428
C63   C     C_R   0.970213 0.444262 0.685721 0.106475
C64   C     C_R   0.010512 0.580484 0.314884 0.098104
C65   C     C_R   0.480103 0.691894 0.905390 0.111818
C66   C     C_R   0.578080 0.306965 0.024612 0.092422
C67   C     C_R   0.575575 0.948835 0.353172 0.100228
C68   C     C_R   0.385703 0.101498 0.647669 0.092757
C69   C     C_R   0.371274 0.599419 0.906635 0.064127
C70   C     C_R   0.676382 0.398370 0.036750 0.094302
C71   C     C_R   0.955866 0.340940 0.598711 0.102171
C72   C     C_R   0.074645 0.654764 0.393264 0.097764
C73   C     C_R   0.718756 0.932521 0.369553 -0.202726
C74   C     C_R   0.242746 0.125934 0.623845 -0.215902
C75   C     C_R   0.947672 0.362629 0.736685 -0.222202
C76   C     C_R   0.041991 0.657443 0.263163 -0.234293
C77   C     C_R   0.408609 0.740209 0.864810 -0.224652
C78   C     C_R   0.660841 0.257585 0.045820 -0.222896
C79   C     C_R   0.671136 0.924918 0.323454 -0.231861
C80   C     C_R   0.289679 0.129767 0.673212 -0.228971
C81   C     C_R   0.354465 0.694776 0.866498 -0.210607
C82   C     C_R   0.710502 0.303048 0.050210 -0.232151
C83   C     C_R   0.945727 0.308866 0.693080 -0.244748
C84   C     C_R   0.076310 0.692184 0.300802 -0.224773
C85   C     C_R   0.528339 0.989779 0.424531 0.008643
C86   C     C_R   0.433517 0.062166 0.574367 0.013123
C87   C     C_R   0.985003 0.419464 0.546999 0.017386
C88   C     C_R   0.041699 0.578143 0.445117 0.010590
C89   C     C_R   0.450505 0.549371 0.934122 0.016148
C90   C     C_R   0.603561 0.449251 0.998674 0.016901
C91   C     C_R   0.577016 0.996129 0.472614 0.007065
C92   C     C_R   0.385101 0.056017 0.525515 0.013645
C93   C     C_R   0.501774 0.595648 0.938255 0.015621
C94   C     C_R   0.554100 0.403211 0.992115 0.013447
C95   C     C_R   0.998109 0.467571 0.590326 0.012251
C96   C     C_R   0.016431 0.537081 0.404032 0.017976
C97   C     C_R   0.432623 0.019825 0.450606 -0.062462
C98   C     C_R   0.529612 0.032989 0.546905 -0.047475
C99   C     C_R   0.989364 0.457037 0.454575 -0.058297
C100  C     C_R   0.028493 0.545478 0.539212 -0.050050
C101  C     C_R   0.473874 0.453559 0.965488 -0.054941
C102  C     C_R   0.573686 0.545336 0.977216 -0.061281
C103  C     C_3   0.223878 0.046969 0.230572 -0.345751
C104  C     C_3   0.235764 0.106299 0.132619 -0.826903
H13   H     H_    0.291038 0.132680 0.114599 0.277442
H14   H     H_    0.251355 0.065860 0.086750 0.269513
H15   H     H_    0.172802 0.162931 0.122246 0.215193
H16   H     H_    0.222938 0.979789 0.233554 0.233035
H17   H     H_    0.153740 0.086812 0.261298 0.220226
C105  C     C_3   0.684632 0.160506 0.672319 -0.377325
C106  C     C_3   0.665722 0.238272 0.586929 -0.886405
H18   H     H_    0.720543 0.223419 0.524920 0.253734
H19   H     H_    0.599590 0.246480 0.580542 0.268938
H20   H     H_    0.661152 0.304500 0.590494 0.257188
H21   H     H_    0.636458 0.184310 0.732930 0.203945
H22   H     H_    0.753215 0.144323 0.676571 0.222924
C107  C     C_3   0.839544 0.321039 0.322250 -0.386996
C108  C     C_3   0.753895 0.395908 0.354994 -0.893291
H23   H     H_    0.751227 0.398967 0.420926 0.269898
H24   H     H_    0.753803 0.463946 0.304187 0.249240
H25   H     H_    0.691238 0.381311 0.366859 0.260631
H26   H     H_    0.851603 0.324070 0.251898 0.217756
H27   H     H_    0.828053 0.253792 0.365152 0.211475
C109  C     C_3   0.141091 0.694386 0.706883 -0.358648
C110  C     C_3   0.226123 0.717080 0.633290 -0.877108
H28   H     H_    0.266933 0.661829 0.599310 0.259159
H29   H     H_    0.207826 0.783227 0.581426 0.272813
H30   H     H_    0.268825 0.722886 0.665135 0.246687
H31   H     H_    0.098686 0.751447 0.738126 0.227542
H32   H     H_    0.167592 0.633316 0.759441 0.204485
C111  C     C_3   0.244639 0.291797 0.126609 -0.389251
C112  C     C_3   0.222659 0.365848 0.169992 -0.875291
H33   H     H_    0.282950 0.388406 0.150270 0.267364
H34   H     H_    0.164526 0.424533 0.151422 0.263652
H35   H     H_    0.201290 0.337828 0.245106 0.247529
H36   H     H_    0.179006 0.282887 0.138322 0.225319
H37   H     H_    0.285688 0.229180 0.166622 0.211823
C113  C     C_3   0.654453 0.681110 0.162681 -0.392755
C114  C     C_3   0.566953 0.656878 0.227848 -0.874149
H38   H     H_    0.506534 0.710259 0.207369 0.256067
H39   H     H_    0.569555 0.589662 0.227508 0.268189
H40   H     H_    0.558182 0.651271 0.298583 0.253943
H41   H     H_    0.711703 0.633152 0.191699 0.188244
H42   H     H_    0.650004 0.750270 0.157599 0.223085
C115  C     C_3   0.386086 0.180332 0.749993 -0.348429
C116  C     C_3   0.353692 0.279098 0.692508 -0.894408
H43   H     H_    0.412457 0.299247 0.636726 0.261115
H44   H     H_    0.302071 0.288117 0.662418 0.267689
H45   H     H_    0.322487 0.325873 0.736016 0.250896
H46   H     H_    0.328424 0.159914 0.807321 0.200107
H47   H     H_    0.431281 0.182316 0.781120 0.218287
C117  C     C_3   0.568930 0.840253 0.289531 -0.361329
C118  C     C_3   0.589477 0.757396 0.371038 -0.905075
H48   H     H_    0.628128 0.766492 0.404785 0.276977
H49   H     H_    0.524849 0.746016 0.422072 0.264665
H50   H     H_    0.631747 0.695150 0.348214 0.255565
H51   H     H_    0.522578 0.828099 0.267483 0.209887
H52   H     H_    0.631763 0.843728 0.232119 0.191918
C119  C     C_3   0.165468 0.752712 0.379031 -0.342665
C120  C     C_3   0.257876 0.699095 0.327823 -0.900190
H53   H     H_    0.289795 0.637606 0.376676 0.267009
H54   H     H_    0.251251 0.677111 0.277543 0.264379
H55   H     H_    0.303586 0.743139 0.290592 0.251946
H56   H     H_    0.133748 0.814846 0.330641 0.197489
H57   H     H_    0.180824 0.776673 0.421972 0.220878
C121  C     C_3   0.852539 0.258494 0.615758 -0.355588
C122  C     C_3   0.766789 0.325805 0.660684 -0.900032
H58   H     H_    0.779420 0.351965 0.703646 0.271553
H59   H     H_    0.739510 0.385440 0.607466 0.259819
H60   H     H_    0.713907 0.291420 0.706340 0.252081
H61   H     H_    0.831802 0.239603 0.573308 0.229363
H62   H     H_    0.876035 0.194856 0.667933 0.190707
C123  C     C_3   0.741710 0.386727 0.152425 -0.358363
C124  C     C_3   0.671511 0.344096 0.233946 -0.891768
H63   H     H_    0.614688 0.398390 0.262871 0.258350
H64   H     H_    0.642020 0.308159 0.216034 0.268970
H65   H     H_    0.704356 0.292162 0.286946 0.253847
H66   H     H_    0.806461 0.332870 0.134062 0.189819
H67   H     H_    0.756257 0.431025 0.175167 0.214195
C125  C     C_3   0.215979 0.606475 0.001633 -0.317335
C126  C     C_3   0.146279 0.682525 0.953217 -0.797487
H68   H     H_    0.155642 0.750304 0.934257 0.204457
H69   H     H_    0.151972 0.670104 0.890909 0.263597
H70   H     H_    0.076368 0.686452 0.000152 0.232455
H71   H     H_    0.184041 0.558187 0.061713 0.214229
H72   H     H_    0.234661 0.638725 0.035008 0.176905
C127  C     C_3   0.159937 0.179134 0.477189 -0.365275
C128  C     C_3   0.185406 0.268043 0.440487 -0.877349
H73   H     H_    0.182866 0.288265 0.496866 0.267153
H74   H     H_    0.254713 0.260326 0.391223 0.261872
H75   H     H_    0.137995 0.323979 0.403489 0.249553
H76   H     H_    0.134268 0.179646 0.426034 0.196320
H77   H     H_    0.103784 0.177637 0.541641 0.208164
C129  C     C_3   0.786802 0.861726 0.539500 -0.379378
C130  C     C_3   0.868050 0.823028 0.467054 -0.807107
H78   H     H_    0.848731 0.790021 0.435373 0.236874
H79   H     H_    0.900102 0.876286 0.414979 0.270690
H80   H     H_    0.917950 0.767510 0.501250 0.253958
H81   H     H_    0.813270 0.863226 0.589206 0.199543
H82   H     H_    0.748057 0.811103 0.578349 0.196018
C131  C     C_3   0.506774 0.180709 0.128354 -0.325391
C132  C     C_3   0.484631 0.205995 0.214546 -0.897714
H83   H     H_    0.541612 0.222922 0.214253 0.265885
H84   H     H_    0.421980 0.265359 0.220763 0.264697
H85   H     H_    0.472670 0.147373 0.275095 0.258760
H86   H     H_    0.450360 0.156185 0.139939 0.206714
H87   H     H_    0.570045 0.122251 0.121481 0.206353
C133  C     C_3   0.544478 0.825206 0.842331 -0.341411
C134  C     C_3   0.590831 0.811295 0.747490 -0.927443
H88   H     H_    0.651996 0.750215 0.747885 0.263010
H89   H     H_    0.543802 0.803450 0.722530 0.271622
H90   H     H_    0.613355 0.871331 0.699544 0.257806
H91   H     H_    0.478444 0.880132 0.844045 0.222984
H92   H     H_    0.590590 0.848318 0.853528 0.206463
C135  C     C_3   0.892759 0.626147 0.236792 -0.324832
C136  C     C_3   0.826142 0.693492 0.291866 -0.946461
H93   H     H_    0.860532 0.734212 0.296973 0.268695
H94   H     H_    0.773771 0.741962 0.256803 0.253613
H95   H     H_    0.792579 0.656098 0.361450 0.276163
H96   H     H_    0.926772 0.664496 0.168034 0.200734
H97   H     H_    0.850084 0.595753 0.229123 0.206819
C137  C     C_3   0.870945 0.528777 0.803806 -0.336644
C138  C     C_3   0.786556 0.559217 0.773031 -0.907625
H98   H     H_    0.790892 0.615550 0.708220 0.260299
H99   H     H_    0.779409 0.501186 0.763292 0.271255
H100  H     H_    0.724856 0.584665 0.825407 0.260073
H101  H     H_    0.869147 0.467896 0.864466 0.222270
H102  H     H_    0.865713 0.586023 0.824729 0.207571

loop_
_geom_bond_atom_site_label_1
_geom_bond_atom_site_label_2
_geom_bond_distance
_ccdc_geom_bond_type
H5    C82   1.081170 S    
C90   C102  1.405187 A    
C24   C31   1.471411 S    
C2    C32   1.449043 A    
C95   C100  1.409856 A    
C1    C49   1.422399 A    
C109  H32   1.109555 S    
C121  H61   1.102049 S    
C131  H87   1.109527 S    
C68   C80   1.410551 A    
C3    C33   1.442037 A    
C119  C120  1.529654 S    
C50   C129  1.529574 S    
O11   C23   1.245897 A    
C126  H68   1.109215 S    
O13   Zn1   2.063980 S    
C124  H65   1.107819 S    
C59   C111  1.540665 S    
C56   C105  1.504003 S    
O12   C24   1.261063 A    
O18   C20   1.296332 A    
C77   C81   1.399867 A    
C44   C67   1.420769 A    
O4    Zn4   2.032612 S    
C103  C104  1.515419 S    
C45   C119  1.527181 S    
C126  H70   1.110121 S    
C134  H88   1.109599 S    
C110  H29   1.108864 S    
C111  C112  1.530687 S    
C129  C130  1.521414 S    
O6    Zn6   2.039099 S    
C15   C40   1.460426 S    
O16   C22   1.293723 A    
O21   C15   1.307830 A    
C16   C39   1.457733 S    
C71   C87   1.408901 A    
C116  H45   1.110879 S    
O22   C16   1.291942 A    
H11   C76   1.082714 S    
C17   C38   1.448278 S    
O3    Zn3   2.032612 S    
C124  H64   1.106207 S    
C66   C94   1.407397 A    
C94   C101  1.407503 A    
O2    Zn2   2.030745 S    
C9    C30   1.404125 A    
C72   C84   1.411040 A    
C26   C98   1.417800 A    
C134  H89   1.108996 S    
C71   C83   1.410884 A    
C111  H37   1.110053 S    
C20   C35   1.482608 S    
C131  C132  1.530505 S    
C4    C54   1.420709 A    
C122  H60   1.106347 S    
C132  H83   1.108750 S    
C128  H75   1.100730 S    
C116  H44   1.108027 S    
C135  C136  1.527724 S    
C35   C59   1.375440 A    
C129  H82   1.111125 S    
C127  H76   1.106368 S    
C66   C78   1.402132 A    
H3    C84   1.080583 S    
C49   C127  1.514613 S    
C65   C93   1.409370 A    
O1    Zn1   2.030745 S    
H9    C78   1.081741 S    
C62   C74   1.406497 A    
C67   C85   1.405369 A    
C117  H52   1.106603 S    
O4    C16   1.230949 A    
C111  H36   1.106410 S    
C121  C122  1.540250 S    
H1    C80   1.080214 S    
O10   C22   1.232913 A    
O17   Zn5   2.047682 S    
C121  H62   1.109826 S    
C119  H56   1.110063 S    
C48   C69   1.423145 A    
O7    C19   1.245467 A    
C106  H19   1.111399 S    
C138  H98   1.111306 S    
O13   C23   1.289240 A    
C103  H16   1.113235 S    
O15   Zn3   2.058208 S    
O1    C13   1.236084 A    
C118  H50   1.106882 S    
C44   C117  1.516346 S    
O15   C21   1.267324 A    
C12   C27   1.413978 A    
C27   C99   1.417325 A    
C117  C118  1.535692 S    
C51   C66   1.402297 A    
O3    C15   1.216779 A    
C109  H31   1.110241 S    
C110  H28   1.111082 S    
C130  H78   1.109282 S    
C64   C76   1.406896 A    
C8    C38   1.450311 A    
C72   C88   1.415152 A    
C63   C75   1.400194 A    
C128  H73   1.109794 S    
C85   C97   1.405567 A    
C40   C59   1.384455 A    
C123  H67   1.104330 S    
C65   C77   1.409206 A    
C43   C115  1.531331 S    
C127  C128  1.534008 S    
C46   C71   1.418707 A    
C110  H30   1.110854 S    
C104  H14   1.111087 S    
C114  H39   1.111479 S    
C133  H92   1.106269 S    
O20   Zn5   2.057860 S    
C38   C55   1.423570 A    
C105  H22   1.099608 S    
C21   C34   1.455426 S    
O24   Zn1   2.049061 S    
C120  H53   1.111056 S    
C50   C61   1.426280 A    
C69   C81   1.409813 A    
C135  H96   1.111066 S    
C67   C79   1.405121 A    
C108  H25   1.105421 S    
C85   C91   1.424425 A    
C7    C43   1.429750 A    
O9    Zn4   2.038996 S    
C10   C48   1.458017 A    
C61   C91   1.413790 A    
O7    Zn6   2.023252 S    
C45   C72   1.430912 A    
C60   C113  1.511631 S    
O11   Zn2   2.040175 S    
C12   C46   1.427924 A    
C134  H90   1.100942 S    
C3    C53   1.436070 A    
O12   Zn1   2.040175 S    
C133  C134  1.527721 S    
C114  H38   1.110645 S    
C63   C95   1.402211 A    
C120  H55   1.110955 S    
C28   C100  1.409709 A    
C87   C95   1.411126 A    
C33   C57   1.389714 A    
C1    C31   1.433781 A    
C116  H43   1.111066 S    
C106  H20   1.105078 S    
C108  H24   1.110631 S    
C129  H81   1.109732 S    
C31   C55   1.389910 A    
C47   C70   1.407651 A    
C61   C73   1.405674 A    
C123  C124  1.538194 S    
O10   Zn3   2.038996 S    
C8    C25   1.412454 A    
C122  H59   1.110925 S    
C86   C92   1.429690 A    
C104  H15   1.111381 S    
C62   C92   1.408936 A    
C32   C56   1.395211 A    
C107  C108  1.537223 S    
C18   C37   1.472240 S    
C14   C41   1.479533 S    
C125  H72   1.114579 S    
C90   C94   1.410406 A    
C58   C109  1.528593 S    
C13   C42   1.483555 S    
C126  H69   1.108169 S    
C122  H58   1.105764 S    
C119  H57   1.107785 S    
C8    C44   1.425605 A    
H10   C77   1.081151 S    
C4    C34   1.425084 A    
C52   C65   1.427683 A    
C124  H63   1.110787 S    
H7    C74   1.081518 S    
C128  H74   1.112024 S    
C138  H99   1.110085 S    
C112  H35   1.107754 S    
O8    C20   1.245037 A    
C115  H46   1.109757 S    
C103  H17   1.110655 S    
H12   C75   1.082621 S    
C120  H54   1.108665 S    
O21   Zn4   2.062959 S    
C48   C125  1.538559 S    
C1    C25   1.403421 A    
C10   C29   1.431654 A    
C19   C36   1.454635 S    
C6    C36   1.448370 A    
O19   Zn6   2.057861 S    
C23   C32   1.480704 S    
C5    C35   1.410163 A    
C46   C121  1.517206 S    
C3    C27   1.408660 A    
C2    C50   1.424371 A    
C130  H79   1.109915 S    
C22   C33   1.467265 S    
C109  C110  1.532532 S    
C49   C62   1.425890 A    
C130  H80   1.100660 S    
C136  H95   1.111236 S    
C54   C63   1.402562 A    
C57   C107  1.505047 S    
C88   C96   1.417321 A    
C5    C29   1.413768 A    
C136  H94   1.107017 S    
C42   C57   1.373082 A    
C89   C101  1.400870 A    
C113  C114  1.534822 S    
C47   C123  1.515198 S    
C41   C58   1.386414 A    
C104  H13   1.077765 S    
C74   C80   1.395283 A    
C114  H40   1.104391 S    
C69   C89   1.399857 A    
C133  H91   1.108559 S    
O5    C17   1.260755 A    
C105  H21   1.112985 S    
C93   C102  1.400015 A    
O8    Zn5   2.023250 S    
C137  H102  1.109927 S    
O19   C17   1.265697 A    
H6    C81   1.079915 S    
O23   C13   1.300796 A    
C70   C90   1.404407 A    
C135  H97   1.110082 S    
C125  H71   1.102241 S    
O22   Zn3   2.062958 S    
C52   C133  1.514984 S    
C137  H101  1.109846 S    
O16   Zn4   2.058208 S    
C4    C28   1.409296 A    
C11   C45   1.432259 A    
C96   C99   1.411680 A    
C34   C58   1.405412 A    
O18   Zn6   2.047684 S    
O14   C24   1.302794 A    
C70   C82   1.406663 A    
C36   C60   1.395162 A    
C30   C102  1.409370 A    
O17   C19   1.282094 A    
C89   C93   1.418035 A    
C53   C64   1.412845 A    
C113  H42   1.099406 S    
O14   Zn2   2.063980 S    
O2    C14   1.247233 A    
C11   C41   1.433244 A    
C25   C97   1.427219 A    
C136  H93   1.109368 S    
C137  C138  1.529721 S    
C115  C116  1.530832 S    
O5    Zn5   2.039099 S    
C132  H85   1.105254 S    
C123  H66   1.109574 S    
C108  H23   1.111786 S    
C43   C68   1.431205 A    
C7    C26   1.413738 A    
C51   C131  1.531054 S    
C11   C28   1.413047 A    
C2    C26   1.425552 A    
O23   Zn2   2.049060 S    
C7    C37   1.428191 A    
O20   C18   1.296182 A    
O9    C21   1.251881 A    
C55   C103  1.579649 S    
C39   C60   1.359391 A    
O24   C14   1.290568 A    
C6    C52   1.428639 A    
C132  H84   1.111093 S    
C53   C135  1.528620 S    
H8    C73   1.077357 S    
C5    C51   1.418825 A    
C86   C98   1.410911 A    
C125  C126  1.535252 S    
C88   C100  1.398151 A    
C138  H100  1.106437 S    
C112  H34   1.105539 S    
C127  H77   1.107584 S    
C9    C39   1.418964 A    
C64   C96   1.398299 A    
C37   C56   1.366277 A    
C6    C30   1.414246 A    
C10   C40   1.473840 A    
C118  H48   1.108498 S    
C117  H51   1.106600 S    
C107  H27   1.109864 S    
C87   C99   1.399968 A    
C12   C42   1.439166 A    
C91   C98   1.406286 A    
C131  H86   1.106215 S    
O6    C18   1.242879 A    
C113  H41   1.111643 S    
C9    C47   1.421684 A    
C73   C79   1.393259 A    
C92   C97   1.408715 A    
C107  H26   1.097172 S    
C54   C137  1.526113 S    
C105  C106  1.536266 S    
C76   C84   1.399834 A    
C29   C101  1.412153 A    
C106  H18   1.109856 S    
H2    C79   1.080521 S    
C75   C83   1.391028 A    
C115  H47   1.104751 S    
C78   C82   1.385775 A    
C68   C86   1.416406 A    
H4    C83   1.081167 S    
C118  H49   1.110866 S    
C112  H33   1.109584 S    
