data_mof_unit_62493.cif
_audit_creation_date              2012-10-26T19:34:59-0400
_audit_creation_method            fapswitch 2.2
_symmetry_space_group_name_H-M    P1
_symmetry_Int_Tables_number       1
_space_group_crystal_system       triclinic
_cell_length_a                    13.894866
_cell_length_b                    18.162283
_cell_length_c                    19.448811
_cell_angle_alpha                 90.003318
_cell_angle_beta                  90.334366
_cell_angle_gamma                 84.982304
_cell_volume                      4889.25723577

loop_
_atom_site_label
_atom_site_type_symbol
_atom_type_description
_atom_site_fract_x
_atom_site_fract_y
_atom_site_fract_z
_atom_type_partial_charge
C1    C     C_R   0.500133 0.499943 0.632492 0.549873
C2    C     C_R   0.433703 0.548406 0.035193 -0.045026
C3    C     C_R   0.499923 0.499315 0.927955 0.057804
C4    C     C_R   0.500078 0.500685 0.072045 0.057804
C5    C     C_R   0.560553 0.274741 0.542956 -0.032202
C6    C     C_R   0.439448 0.725259 0.457043 -0.032203
C7    C     C_R   0.561575 0.197289 0.543565 -0.218673
C8    C     C_R   0.438427 0.802710 0.456435 -0.218674
C9    C     C_R   0.499531 0.161450 0.499780 -0.033280
C10   C     C_R   0.500469 0.838550 0.500220 -0.033279
C11   C     C_R   0.438166 0.205812 0.455621 0.386579
C12   C     C_R   0.499867 0.500057 0.367508 0.549873
C13   C     C_R   0.561833 0.794188 0.544380 0.386580
C14   C     C_R   0.439497 0.283071 0.456634 0.566081
C15   C     C_R   0.560501 0.716929 0.543366 0.566082
C16   C     C_R   0.683168 0.488184 0.500048 0.555063
C17   C     C_R   0.316832 0.511816 0.499952 0.555064
C18   C     C_R   0.412645 0.044263 0.497857 -0.047354
C19   C     C_R   0.587355 0.955736 0.502143 -0.047354
C20   C     C_R   0.412996 0.966852 0.497571 -0.108110
C21   C     C_R   0.587004 0.033148 0.502429 -0.108110
C22   C     C_R   0.500334 0.921339 0.499973 0.061323
C23   C     C_R   0.499646 0.433738 0.255282 -0.124857
C24   C     C_R   0.499666 0.078661 0.500026 0.061323
C25   C     C_1   0.213776 0.518899 0.499877 0.012840
C26   C     C_1   0.786224 0.481100 0.500123 0.012839
C27   C     C_2   0.023463 0.530480 0.499739 -0.106382
C28   C     C_2   0.976537 0.469520 0.500261 -0.106382
C29   C     C_1   0.872991 0.475353 0.500190 -0.027975
C30   C     C_1   0.127009 0.524646 0.499810 -0.027975
C31   C     C_R   0.500260 0.567213 0.255845 -0.084053
C32   C     C_R   0.499742 0.432786 0.744155 -0.084053
C33   C     C_R   0.500442 0.567719 0.184224 0.388178
C34   C     C_R   0.500353 0.566262 0.744718 -0.124856
C35   C     C_R   0.499560 0.432281 0.815776 0.388176
C36   C     C_R   0.500012 0.501037 0.147649 0.030147
C37   C     C_R   0.499989 0.498962 0.852351 0.030146
C38   C     C_R   0.499898 0.434147 0.183681 -0.170366
C39   C     C_R   0.500102 0.565854 0.816319 -0.170365
C40   C     C_R   0.499812 0.500290 0.291958 -0.045460
C41   C     C_R   0.500188 0.499710 0.708041 -0.045459
C42   C     C_R   0.566186 0.452129 0.036412 -0.111037
C43   C     C_R   0.433814 0.547870 0.963588 -0.111038
C44   C     C_R   0.566298 0.451594 0.964807 -0.045027
Cu1   Cu    Cu3+1 0.500030 0.426640 0.500000 1.036240
Cu2   Cu    Cu3+1 0.499970 0.573360 0.500000 1.036239
F1    F     F_    0.379320 0.174764 0.410102 -0.602722
F2    F     F_    0.620677 0.825237 0.589898 -0.602722
F3    F     F_    0.380212 0.324664 0.413484 -0.572783
F4    F     F_    0.619785 0.675336 0.586517 -0.572784
F5    F     F_    0.503566 0.633078 0.150791 -0.626098
F6    F     F_    0.496438 0.366920 0.849208 -0.626098
H1    H     H_    0.015578 0.414996 0.500742 0.152867
H2    H     H_    0.381540 0.584662 0.935961 0.120307
H3    H     H_    0.608243 0.301606 0.577124 0.152161
H4    H     H_    0.391759 0.698394 0.422875 0.152161
H5    H     H_    0.500957 0.619272 0.282937 0.158002
H6    H     H_    0.499045 0.380727 0.717063 0.158002
H7    H     H_    0.499215 0.381349 0.281826 0.185665
H8    H     H_    0.500784 0.618652 0.718174 0.185665
H9    H     H_    0.618922 0.414593 0.938170 0.163870
H10   H     H_    0.381080 0.585407 0.061830 0.163869
H11   H     H_    0.609789 0.165713 0.578705 0.139498
H12   H     H_    0.984422 0.585004 0.499257 0.152867
H13   H     H_    0.390214 0.834287 0.421293 0.139499
H14   H     H_    0.343890 0.077265 0.497456 0.170160
H15   H     H_    0.656110 0.922735 0.502544 0.170158
H16   H     H_    0.344589 0.942516 0.496635 0.119202
H17   H     H_    0.655411 0.057484 0.503364 0.119202
H18   H     H_    0.499022 0.382249 0.156324 0.143414
H19   H     H_    0.500976 0.617751 0.843676 0.143414
H20   H     H_    0.618459 0.415336 0.064039 0.120307
N1    N     N_R   0.500010 0.316380 0.499980 -0.262181
N2    N     N_R   0.499990 0.683620 0.500020 -0.262182
O1    O     O_R   0.500040 0.438020 0.599820 -0.524941
O2    O     O_R   0.499960 0.561980 0.400180 -0.524941
O3    O     O_R   0.500000 0.561930 0.599810 -0.450394
O4    O     O_R   0.500000 0.438070 0.400190 -0.450396
O5    O     O_R   0.637870 0.429290 0.499990 -0.516452
O6    O     O_R   0.362130 0.570710 0.500010 -0.516452
O7    O     O_R   0.637830 0.553200 0.499980 -0.438925
O8    O     O_R   0.362170 0.446800 0.500020 -0.438924

loop_
_geom_bond_atom_site_label_1
_geom_bond_atom_site_label_2
_ccdc_geom_bond_type
C4    C36   S    
C1    O3    A    
C11   F1    S    
Cu1   O8    S    
C32   H6    S    
Cu2   O2    S    
Cu1   Cu2   S    
C10   C22   S    
C23   H7    S    
C3    C43   A    
C18   C24   A    
C28   C29   S    
C35   C37   A    
C11   C14   A    
C14   F3    S    
C23   C40   A    
C33   C36   A    
C31   C40   A    
Cu1   N1    S    
C17   O8    A    
C15   F4    S    
C12   O4    A    
C32   C41   A    
C31   C33   A    
C19   H15   S    
Cu1   O4    S    
C8    H13   S    
C27   C30   S    
C34   H8    S    
C34   C41   A    
C42   C44   A    
C5    H3    S    
C6    N2    A    
C16   C26   S    
C3    C44   A    
C34   C39   A    
C1    O1    A    
C32   C35   A    
C19   C22   A    
C5    C7    A    
C6    C8    A    
C17   O6    A    
C21   H17   S    
C12   C40   S    
C2    C4    A    
C14   N1    A    
Cu2   O3    S    
Cu2   O7    S    
C43   H2    S    
C2    C43   A    
C42   H20   S    
Cu1   O5    S    
C9    C11   A    
C7    H11   S    
C1    C41   S    
C38   H18   S    
C20   C22   A    
C13   C15   A    
C33   F5    S    
Cu2   N2    S    
C25   C30   T    
C7    C9    A    
C19   C21   A    
C20   H16   S    
C6    H4    S    
C10   C13   A    
C13   F2    S    
C28   H1    S    
C9    C24   S    
C44   H9    S    
C18   H14   S    
C23   C38   A    
Cu1   O1    S    
C16   O5    A    
C17   C25   S    
C31   H5    S    
C12   O2    A    
C37   C39   A    
Cu2   O6    S    
C4    C42   A    
C36   C38   A    
C16   O7    A    
C18   C20   A    
C5    N1    A    
C27   H12   S    
C15   N2    A    
C3    C37   S    
C26   C29   T    
C8    C10   A    
C21   C24   A    
C35   F6    S    
C39   H19   S    
C2    H10   S    
C27   C28   D    
