data_mof_unit_48839.cif
_audit_creation_date              2012-10-26T21:09:09-0400
_audit_creation_method            fapswitch 2.2
_symmetry_space_group_name_H-M    P1
_symmetry_Int_Tables_number       1
_space_group_crystal_system       triclinic
_cell_length_a                    15.442188
_cell_length_b                    15.364117
_cell_length_c                    9.75207
_cell_angle_alpha                 88.922204
_cell_angle_beta                  89.064208
_cell_angle_gamma                 90.044213
_cell_volume                      2313.01381561

loop_
_atom_site_label
_atom_site_type_symbol
_atom_type_description
_atom_site_fract_x
_atom_site_fract_y
_atom_site_fract_z
_atom_type_partial_charge
C1    C     C_R   0.380390 0.885075 0.501534 0.532917
C2    C     C_2   0.695415 0.238621 0.404472 -0.113053
C3    C     C_2   0.236484 0.305297 0.401805 -0.117197
C4    C     C_2   0.195415 0.738622 0.404472 -0.113053
C5    C     C_2   0.672408 0.803506 0.497294 0.252333
C6    C     C_2   0.696310 0.171141 0.494004 0.254626
C7    C     C_2   0.172408 0.303506 0.497294 0.252333
C8    C     C_2   0.196310 0.671141 0.494004 0.254626
C9    C     C_2   0.299375 0.234164 0.390268 -0.135969
C10   C     C_2   0.267137 0.800885 0.394264 -0.121247
C11   C     C_2   0.799376 0.734164 0.390268 -0.135969
C12   C     C_R   0.386241 0.120528 0.499969 0.541504
C13   C     C_2   0.767137 0.300885 0.394264 -0.121247
C14   C     C_2   0.329419 0.195164 0.503551 -0.079397
C15   C     C_2   0.307867 0.825497 0.507342 -0.085568
C16   C     C_2   0.829418 0.695164 0.503551 -0.079398
C17   C     C_2   0.807867 0.325497 0.507342 -0.085568
C18   C     C_2   0.453162 0.050709 0.925398 0.060449
C19   C     C_2   0.953162 0.550709 0.925398 0.060449
C20   C     C_2   0.436643 0.030384 0.077506 0.408957
C21   C     C_2   0.936643 0.530384 0.077506 0.408957
C22   C     C_3   0.593541 0.730248 0.674711 -0.004250
C23   C     C_R   0.880390 0.385075 0.501534 0.532917
C24   C     C_3   0.586088 0.641966 0.747123 -0.389807
C25   C     C_3   0.761691 0.114711 0.690836 0.002886
C26   C     C_3   0.847811 0.115612 0.764060 -0.389657
C27   C     C_3   0.093541 0.230248 0.674711 -0.004250
C28   C     C_3   0.086088 0.141966 0.747124 -0.389806
C29   C     C_3   0.261691 0.614711 0.690836 0.002886
C30   C     C_3   0.347811 0.615612 0.764060 -0.389657
C31   C     C_3   0.453200 0.861978 0.894606 0.041217
C32   C     C_3   0.454638 0.799715 0.017857 -0.396482
C33   C     C_3   0.953200 0.361978 0.894606 0.041218
C34   C     C_R   0.886241 0.620527 0.499969 0.541504
C35   C     C_3   0.954638 0.299715 0.017857 -0.396482
C36   C     C_3   0.288538 0.059676 0.049094 -0.051358
C37   C     C_3   0.202378 0.055358 0.126816 -0.357572
C38   C     C_3   0.788538 0.559676 0.049094 -0.051358
C39   C     C_3   0.702378 0.555358 0.126816 -0.357572
C40   C     C_R   0.620908 0.113565 0.498655 0.533662
C41   C     C_R   0.613585 0.878778 0.500117 0.521104
C42   C     C_R   0.120908 0.613565 0.498655 0.533662
C43   C     C_R   0.113585 0.378778 0.500117 0.521103
C44   C     C_2   0.736484 0.805297 0.401805 -0.117197
Cu1   Cu    Cu3+1 0.500020 0.000000 0.638630 0.961909
Cu2   Cu    Cu3+1 0.000020 0.500000 0.638630 0.961909
Cu3   Cu    Cu3+1 0.499980 0.000000 0.361370 1.048962
Cu4   Cu    Cu3+1 0.999980 0.500000 0.361370 1.048962
H1    H     H_    0.742781 0.859409 0.328869 0.123646
H2    H     H_    0.285668 0.803300 0.608370 0.127720
H3    H     H_    0.812823 0.719880 0.604326 0.148316
H4    H     H_    0.785668 0.303300 0.608370 0.127720
H5    H     H_    0.421131 0.106162 0.878574 0.064072
H6    H     H_    0.921131 0.606162 0.878574 0.064072
H7    H     H_    0.530141 0.745430 0.627209 0.141862
H8    H     H_    0.610758 0.778397 0.753479 0.182076
H9    H     H_    0.649184 0.623703 0.792574 0.153125
H10   H     H_    0.536375 0.644748 0.830442 0.087593
H11   H     H_    0.567146 0.591610 0.673056 0.164674
H12   H     H_    0.640349 0.249647 0.338305 0.096520
H13   H     H_    0.738875 0.046085 0.688123 0.179573
H14   H     H_    0.715302 0.155276 0.750703 0.147164
H15   H     H_    0.873435 0.183098 0.766329 0.134547
H16   H     H_    0.838957 0.090679 0.870998 0.122088
H17   H     H_    0.895242 0.073687 0.709716 0.159123
H18   H     H_    0.030141 0.245430 0.627208 0.141862
H19   H     H_    0.110758 0.278398 0.753479 0.182076
H20   H     H_    0.149183 0.123704 0.792575 0.153125
H21   H     H_    0.036374 0.144748 0.830442 0.087593
H22   H     H_    0.067146 0.091610 0.673056 0.164674
H23   H     H_    0.242781 0.359409 0.328869 0.123646
H24   H     H_    0.238875 0.546085 0.688123 0.179573
H25   H     H_    0.215302 0.655276 0.750703 0.147164
H26   H     H_    0.373436 0.683099 0.766329 0.134547
H27   H     H_    0.338957 0.590679 0.870998 0.122088
H28   H     H_    0.395242 0.573687 0.709716 0.159124
H29   H     H_    0.462577 0.822523 0.802272 0.143169
H30   H     H_    0.388094 0.893029 0.890877 0.116873
H31   H     H_    0.441406 0.835340 0.113813 0.186302
H32   H     H_    0.404105 0.748946 0.007188 0.090963
H33   H     H_    0.518905 0.767626 0.024594 0.157615
H34   H     H_    0.140349 0.749647 0.338305 0.096520
H35   H     H_    0.962577 0.322523 0.802272 0.143168
H36   H     H_    0.888094 0.393029 0.890877 0.116873
H37   H     H_    0.941405 0.335340 0.113813 0.186302
H38   H     H_    0.904105 0.248946 0.007188 0.090963
H39   H     H_    0.018905 0.267626 0.024594 0.157615
H40   H     H_    0.286579 0.011049 0.965941 0.111150
H41   H     H_    0.295966 0.126587 0.004928 0.121121
H42   H     H_    0.201285 0.103715 0.210053 0.175859
H43   H     H_    0.148619 0.069944 0.055731 0.092992
H44   H     H_    0.192633 0.989195 0.172400 0.155582
H45   H     H_    0.321873 0.215401 0.288952 0.153426
H46   H     H_    0.786579 0.511050 0.965941 0.111150
H47   H     H_    0.795966 0.626587 0.004928 0.121121
H48   H     H_    0.701285 0.603715 0.210054 0.175860
H49   H     H_    0.648619 0.569944 0.055731 0.092992
H50   H     H_    0.692633 0.489195 0.172399 0.155581
H51   H     H_    0.283607 0.829167 0.294260 0.142621
H52   H     H_    0.821873 0.715401 0.288952 0.153426
H53   H     H_    0.783607 0.329167 0.294260 0.142621
H54   H     H_    0.312823 0.219880 0.604326 0.148316
I1    I     I_    0.628619 0.023839 0.092076 -0.278643
I2    I     I_    0.128619 0.523839 0.092076 -0.278643
N1    N     N_2   0.498660 0.000000 0.846910 -0.042991
N2    N     N_2   0.998660 0.500000 0.846910 -0.042991
N3    N     N_2   0.498630 0.000000 0.153040 -0.108794
N4    N     N_2   0.998630 0.500000 0.153040 -0.108794
O1    O     O_R   0.410990 0.910970 0.617040 -0.541172
O2    O     O_R   0.589050 0.910970 0.617100 -0.496441
O3    O     O_R   0.089050 0.589030 0.617100 -0.524518
O4    O     O_R   0.089050 0.410970 0.617100 -0.496441
O5    O     O_R   0.589010 0.089030 0.382960 -0.493130
O6    O     O_R   0.589010 0.910970 0.382960 -0.494414
O7    O     O_R   0.089010 0.589030 0.382960 -0.493130
O8    O     O_R   0.089010 0.410970 0.382960 -0.494414
O9    O     O_3   0.659353 0.726209 0.573720 -0.584065
O10   O     O_3   0.774161 0.148224 0.556253 -0.577581
O11   O     O_3   0.159353 0.226209 0.573721 -0.584064
O12   O     O_R   0.410990 0.089030 0.617040 -0.531567
O13   O     O_3   0.274161 0.648224 0.556253 -0.577581
O14   O     O_3   0.522145 0.922379 0.903714 -0.452099
O15   O     O_3   0.022145 0.422379 0.903714 -0.452099
O16   O     O_3   0.355896 0.041334 0.141324 -0.547091
O17   O     O_3   0.855896 0.541334 0.141324 -0.547091
O18   O     O_R   0.910990 0.410970 0.617040 -0.541172
O19   O     O_R   0.910990 0.589030 0.617040 -0.531567
O20   O     O_R   0.410950 0.910970 0.382900 -0.477855
O21   O     O_R   0.410950 0.089030 0.382900 -0.448381
O22   O     O_R   0.910950 0.410970 0.382900 -0.477855
O23   O     O_R   0.910950 0.589030 0.382900 -0.448381
O24   O     O_R   0.589050 0.089030 0.617100 -0.524518

loop_
_geom_bond_atom_site_label_1
_geom_bond_atom_site_label_2
_ccdc_geom_bond_type
C36   H41   S    
C44   H1    S    
Cu3   O6    S    
Cu2   O4    S    
C22   O9    S    
C28   H21   S    
C1    O20   A    
C41   O6    A    
C4    C8    D    
C25   O10   S    
Cu3   O20   S    
C36   H40   S    
C32   H33   S    
C17   C23   S    
C37   H42   S    
Cu3   O21   S    
C22   C24   S    
C36   C37   S    
C36   O16   S    
C8    C42   S    
C3    C7    D    
C10   C15   D    
C38   C39   S    
C30   H26   S    
C35   H38   S    
Cu1   O1    S    
C8    O13   S    
C39   H49   S    
C29   H25   S    
C15   H2    S    
C2    C13   S    
C26   H16   S    
C18   H5    S    
C16   C34   S    
C12   O12   A    
C35   H39   S    
C31   C32   S    
C24   H9    S    
C29   O13   S    
N2    O15   S    
C16   H3    S    
Cu4   O23   S    
C1    C15   S    
C7    C43   S    
Cu4   O8    S    
C20   N3    D    
C1    O1    A    
C40   O24   A    
Cu2   O3    S    
Cu4   O22   S    
C2    C6    D    
C2    H12   S    
C17   H4    S    
Cu1   N1    S    
C31   H29   S    
Cu1   Cu3   S    
Cu2   Cu4   S    
C12   O21   A    
C37   H43   S    
C7    O11   S    
Cu2   O19   S    
C27   H19   S    
C9    C14   D    
Cu1   O2    S    
C34   O19   A    
C39   H50   S    
C22   H8    S    
C25   C26   S    
C23   O22   A    
C5    O9    S    
C11   H52   S    
C38   H47   S    
C3    H23   S    
C26   H15   S    
C29   C30   S    
C3    C9    S    
C43   O8    A    
C32   H32   S    
C30   H28   S    
C11   C16   D    
C40   O5    A    
C38   H46   S    
C11   C44   S    
C25   H13   S    
C33   H35   S    
C23   O18   A    
C19   H6    S    
C5    C44   D    
C12   C14   S    
C34   O23   A    
Cu3   N3    S    
C41   O2    A    
Cu4   O7    S    
C6    C40   S    
C43   O4    A    
C4    C10   S    
C9    H45   S    
I2    N4    S    
C38   O17   S    
C13   H53   S    
Cu1   O12   S    
C31   H30   S    
Cu3   O5    S    
C5    C41   S    
C37   H44   S    
C28   H20   S    
C26   H17   S    
Cu2   O18   S    
C42   O3    A    
C28   H22   S    
C31   O14   S    
C22   H7    S    
C27   O11   S    
C13   C17   D    
C29   H24   S    
C18   N1    D    
C27   H18   S    
C32   H31   S    
C30   H27   S    
C35   H37   S    
Cu4   N4    S    
C24   H11   S    
Cu2   N2    S    
C33   C35   S    
N1    O14   S    
C18   C20   S    
C25   H14   S    
C10   H51   S    
C33   H36   S    
C39   H48   S    
C20   O16   S    
C21   N4    D    
C14   H54   S    
C19   N2    D    
C42   O7    A    
C4    H34   S    
Cu1   O24   S    
C24   H10   S    
C27   C28   S    
C33   O15   S    
I1    N3    S    
C21   O17   S    
C6    O10   S    
C19   C21   S    
