data_mof_unit_63012.cif
_audit_creation_date              2012-10-26T18:10:57-0400
_audit_creation_method            fapswitch 2.2
_symmetry_space_group_name_H-M    P1
_symmetry_Int_Tables_number       1
_space_group_crystal_system       tetragonal
_cell_length_a                    21.761193
_cell_length_b                    21.761193
_cell_length_c                    23.681182
_cell_angle_alpha                 90.0
_cell_angle_beta                  90.0
_cell_angle_gamma                 90.0
_cell_volume                      11214.2123877

loop_
_atom_site_label
_atom_site_type_symbol
_atom_type_description
_atom_site_fract_x
_atom_site_fract_y
_atom_site_fract_z
_atom_type_partial_charge
C1    C     C_R   0.118630 0.500000 0.000000 0.587489
C2    C     C_R   0.500000 0.000000 0.108077 0.523922
C3    C     C_3   0.039847 0.672295 0.374788 -0.112140
C4    C     C_3   0.672295 0.039847 0.625212 -0.112139
C5    C     C_3   0.960153 0.672295 0.625212 -0.112139
C6    C     C_3   0.327705 0.960153 0.625212 -0.112140
C7    C     C_3   0.039847 0.327705 0.625212 -0.112140
C8    C     C_2   0.311971 0.412193 0.927740 0.284582
C9    C     C_2   0.412193 0.688029 0.927740 0.284582
C10   C     C_2   0.688029 0.587807 0.927740 0.284582
C11   C     C_2   0.587807 0.311971 0.927740 0.284582
C12   C     C_2   0.311971 0.587807 0.072260 0.284582
C13   C     C_R   1.000000 0.500000 0.891923 0.523922
C14   C     C_2   0.412193 0.311971 0.072260 0.284581
C15   C     C_2   0.688029 0.412193 0.072260 0.284582
C16   C     C_2   0.587806 0.688029 0.072260 0.284581
C17   C     C_2   0.811971 0.912194 0.427739 0.284582
C18   C     C_2   0.912193 0.188029 0.427740 0.284582
C19   C     C_2   0.188029 0.087806 0.427739 0.284582
C20   C     C_2   0.087806 0.811971 0.427740 0.284582
C21   C     C_2   0.811971 0.087806 0.572260 0.284581
C22   C     C_2   0.912193 0.811971 0.572260 0.284581
C23   C     C_2   0.188029 0.912194 0.572260 0.284582
C24   C     C_R   0.500000 1.000000 0.891923 0.523922
C25   C     C_2   0.087806 0.188029 0.572260 0.284582
C26   C     C_R   0.500000 1.000000 0.608077 0.523922
C27   C     C_R   0.000000 0.500000 0.608077 0.523922
C28   C     C_R   0.500000 0.000000 0.391923 0.523922
C29   C     C_R   0.000000 0.500000 0.391923 0.523922
C30   C     C_1   0.000000 0.500000 0.168964 -0.032599
C31   C     C_1   0.500000 0.000000 0.168964 -0.032599
C32   C     C_1   1.000000 0.500000 0.831036 -0.032599
C33   C     C_R   0.500000 0.881370 0.000000 0.587489
C34   C     C_1   0.500000 0.000000 0.831036 -0.032599
C35   C     C_1   0.500000 0.000000 0.668964 -0.032599
C36   C     C_1   1.000000 0.500000 0.668964 -0.032599
C37   C     C_1   0.500000 0.000000 0.331036 -0.032599
C38   C     C_1   1.000000 0.500000 0.331036 -0.032599
C39   C     C_1   0.000000 0.500000 0.220046 -0.047949
C40   C     C_1   0.500000 0.000000 0.220046 -0.047949
C41   C     C_1   1.000000 0.500000 0.779954 -0.047949
C42   C     C_1   0.500000 1.000000 0.779954 -0.047949
C43   C     C_1   0.500000 1.000000 0.720046 -0.047949
C44   C     C_R   0.881370 0.500000 0.000000 0.587489
C45   C     C_1   1.000000 0.500000 0.720046 -0.047949
C46   C     C_1   0.500000 0.000000 0.279954 -0.047949
C47   C     C_1   1.000000 0.500000 0.279954 -0.047949
C48   C     C_R   0.216969 0.462784 0.961352 0.187229
C49   C     C_R   0.462784 0.783031 0.961352 0.187229
C50   C     C_R   0.783031 0.537216 0.961352 0.187228
C51   C     C_R   0.537216 0.216969 0.961352 0.187229
C52   C     C_R   0.216969 0.537216 0.038648 0.187228
C53   C     C_R   0.462784 0.216969 0.038648 0.187228
C54   C     C_R   0.783031 0.462784 0.038648 0.187229
C55   C     C_R   0.500000 0.118630 0.000000 0.587489
C56   C     C_R   0.537216 0.783031 0.038648 0.187229
C57   C     C_R   0.716969 0.962784 0.461352 0.187228
C58   C     C_R   0.962784 0.283031 0.461352 0.187229
C59   C     C_R   0.283031 0.037216 0.461352 0.187228
C60   C     C_R   0.037216 0.716969 0.461352 0.187229
C61   C     C_R   0.716969 0.037216 0.538648 0.187228
C62   C     C_R   0.962784 0.716969 0.538648 0.187229
C63   C     C_R   0.283031 0.962784 0.538648 0.187228
C64   C     C_R   0.037216 0.283031 0.538648 0.187229
C65   C     C_R   0.281195 0.459528 0.963471 -0.014437
C66   C     C_R   0.618630 0.000000 0.500000 0.587489
C67   C     C_R   0.459528 0.718805 0.963471 -0.014436
C68   C     C_R   0.718805 0.540472 0.963471 -0.014436
C69   C     C_R   0.540472 0.281195 0.963471 -0.014437
C70   C     C_R   0.281195 0.540472 0.036529 -0.014437
C71   C     C_R   0.459528 0.281195 0.036529 -0.014436
C72   C     C_R   0.718805 0.459528 0.036529 -0.014437
C73   C     C_R   0.540472 0.718805 0.036529 -0.014437
C74   C     C_R   0.781195 0.959528 0.463471 -0.014436
C75   C     C_R   0.959528 0.218805 0.463471 -0.014436
C76   C     C_R   0.218805 0.040472 0.463471 -0.014437
C77   C     C_R   0.000000 0.381370 0.500000 0.587489
C78   C     C_R   0.040472 0.781195 0.463471 -0.014436
C79   C     C_R   0.781195 0.040472 0.536529 -0.014436
C80   C     C_R   0.959528 0.781195 0.536529 -0.014436
C81   C     C_R   0.218805 0.959528 0.536529 -0.014437
C82   C     C_R   0.040472 0.218805 0.536529 -0.014436
C83   C     C_R   0.313645 0.500000 0.000000 -0.020417
C84   C     C_R   0.500000 0.686355 0.000000 -0.020417
C85   C     C_R   0.686355 0.500000 0.000000 -0.020417
C86   C     C_R   0.500000 0.313645 1.000000 -0.020417
C87   C     C_R   0.813645 1.000000 0.500000 -0.020417
C88   C     C_R   0.381370 0.000000 0.500000 0.587489
C89   C     C_R   0.000000 0.186355 0.500000 -0.020417
C90   C     C_R   0.186355 0.000000 0.500000 -0.020418
C91   C     C_R   1.000000 0.813645 0.500000 -0.020417
C92   C     C_R   0.500000 0.619244 0.000000 0.683647
C93   C     C_R   0.619244 0.500000 0.000000 0.683647
C94   C     C_R   0.500000 0.380756 0.000000 0.683647
C95   C     C_R   0.380756 0.500000 0.000000 0.683647
C96   C     C_R   0.000000 0.119244 0.500000 0.683647
C97   C     C_R   0.119244 0.000000 0.500000 0.683647
C98   C     C_R   1.000000 0.880756 0.500000 0.683647
C99   C     C_R   0.000000 0.618630 0.500000 0.587489
C100  C     C_R   0.880756 0.000000 0.500000 0.683647
C101  C     C_R   0.185319 0.500000 1.000000 0.021783
C102  C     C_R   0.500000 0.814681 0.000000 0.021783
C103  C     C_R   0.814681 0.500000 0.000000 0.021783
C104  C     C_R   0.500000 0.185319 0.000000 0.021783
C105  C     C_R   0.685319 0.000000 0.500000 0.021783
C106  C     C_R   1.000000 0.314681 0.500000 0.021783
C107  C     C_R   0.314681 0.000000 0.500000 0.021783
C108  C     C_R   0.000000 0.685319 0.500000 0.021783
C109  C     C_3   0.172294 0.460153 0.874788 -0.112139
C110  C     C_R   0.000000 0.500000 0.108077 0.523922
C111  C     C_3   0.460153 0.827705 0.874788 -0.112140
C112  C     C_3   0.827705 0.539847 0.874789 -0.112139
C113  C     C_3   0.539847 0.172295 0.874788 -0.112141
C114  C     C_3   0.172295 0.539847 0.125212 -0.112140
C115  C     C_3   0.460153 0.172295 0.125211 -0.112140
C116  C     C_3   0.827705 0.460153 0.125212 -0.112139
C117  C     C_3   0.539847 0.827705 0.125212 -0.112140
C118  C     C_3   0.672295 0.960153 0.374788 -0.112139
C119  C     C_3   0.960153 0.327705 0.374788 -0.112139
C120  C     C_3   0.327705 0.039847 0.374788 -0.112140
Cu1   Cu    Cu3+1 0.000000 0.561790 0.000000 1.019804
Cu2   Cu    Cu3+1 0.500000 0.500000 0.055780 1.092779
Cu3   Cu    Cu3+1 1.000000 1.000000 0.444220 1.092778
Cu4   Cu    Cu3+1 1.000000 1.000000 0.555780 1.092778
Cu5   Cu    Cu3+1 0.561790 0.000000 0.000000 1.019804
Cu6   Cu    Cu3+1 0.000000 0.438210 0.000000 1.019804
Cu7   Cu    Cu3+1 0.438210 0.000000 0.000000 1.019804
Cu8   Cu    Cu3+1 0.500000 0.061790 0.500000 1.019804
Cu9   Cu    Cu3+1 0.061790 0.500000 0.500000 1.019804
Cu10  Cu    Cu3+1 0.500000 0.938210 0.500000 1.019804
Cu11  Cu    Cu3+1 0.938210 0.500000 0.500000 1.019804
Cu12  Cu    Cu3+1 0.500000 0.500000 0.944220 1.092779
H1    H     H_    0.147020 0.430438 0.844637 0.152261
H2    H     H_    0.569562 0.147020 0.844637 0.152261
H3    H     H_    0.524715 0.215474 0.853772 0.100635
H4    H     H_    0.499375 0.142695 0.883938 0.120827
H5    H     H_    0.147020 0.569562 0.155363 0.152261
H6    H     H_    0.215474 0.524716 0.146228 0.100635
H7    H     H_    0.142696 0.499374 0.116062 0.120827
H8    H     H_    0.430438 0.147020 0.155363 0.152261
H9    H     H_    0.475284 0.215474 0.146228 0.100635
H10   H     H_    0.500625 0.142695 0.116062 0.120827
H11   H     H_    0.852980 0.430438 0.155363 0.152261
H12   H     H_    0.215474 0.475285 0.853772 0.100635
H13   H     H_    0.784526 0.475285 0.146228 0.100635
H14   H     H_    0.857305 0.500625 0.116062 0.120827
H15   H     H_    0.569562 0.852980 0.155363 0.152261
H16   H     H_    0.524715 0.784526 0.146228 0.100635
H17   H     H_    0.499375 0.857305 0.116062 0.120827
H18   H     H_    0.647020 0.930438 0.344637 0.152261
H19   H     H_    0.715474 0.975285 0.353772 0.100635
H20   H     H_    0.642695 0.000625 0.383937 0.120827
H21   H     H_    0.930438 0.352980 0.344637 0.152261
H22   H     H_    0.975285 0.284526 0.353772 0.100635
H23   H     H_    0.142695 0.500625 0.883938 0.120827
H24   H     H_    0.000625 0.357305 0.383937 0.120827
H25   H     H_    0.352979 0.069562 0.344637 0.152261
H26   H     H_    0.284526 0.024714 0.353772 0.100634
H27   H     H_    0.357306 0.999375 0.383937 0.120828
H28   H     H_    0.069562 0.647020 0.344637 0.152261
H29   H     H_    0.024715 0.715474 0.353772 0.100635
H30   H     H_    0.999375 0.642695 0.383937 0.120827
H31   H     H_    0.647020 0.069562 0.655363 0.152261
H32   H     H_    0.715474 0.024715 0.646228 0.100635
H33   H     H_    0.642695 0.999374 0.616062 0.120827
H34   H     H_    0.430438 0.852980 0.844637 0.152261
H35   H     H_    0.930438 0.647019 0.655362 0.152261
H36   H     H_    0.975284 0.715474 0.646229 0.100635
H37   H     H_    0.000626 0.642696 0.616062 0.120826
H38   H     H_    0.352980 0.930438 0.655363 0.152261
H39   H     H_    0.284526 0.975285 0.646228 0.100635
H40   H     H_    0.357305 0.000625 0.616062 0.120827
H41   H     H_    0.069562 0.352980 0.655363 0.152261
H42   H     H_    0.024715 0.284526 0.646228 0.100635
H43   H     H_    0.999375 0.357305 0.616062 0.120827
H44   H     H_    0.290490 0.396676 0.888948 0.133398
H45   H     H_    0.475284 0.784526 0.853772 0.100635
H46   H     H_    0.396676 0.709510 0.888948 0.133398
H47   H     H_    0.709510 0.603325 0.888949 0.133398
H48   H     H_    0.603324 0.290490 0.888948 0.133398
H49   H     H_    0.290490 0.603324 0.111051 0.133398
H50   H     H_    0.396675 0.290490 0.111051 0.133398
H51   H     H_    0.709510 0.396676 0.111052 0.133398
H52   H     H_    0.603324 0.709510 0.111052 0.133398
H53   H     H_    0.790490 0.896676 0.388948 0.133398
H54   H     H_    0.896676 0.209510 0.388948 0.133398
H55   H     H_    0.209509 0.103324 0.388948 0.133397
H56   H     H_    0.500626 0.857305 0.883938 0.120827
H57   H     H_    0.103324 0.790490 0.388948 0.133398
H58   H     H_    0.790490 0.103324 0.611052 0.133398
H59   H     H_    0.896676 0.790490 0.611051 0.133398
H60   H     H_    0.209510 0.896676 0.611052 0.133397
H61   H     H_    0.103324 0.209510 0.611052 0.133397
H62   H     H_    0.852979 0.569562 0.844637 0.152261
H63   H     H_    0.784526 0.524715 0.853772 0.100635
H64   H     H_    0.857305 0.499375 0.883938 0.120827
O1    O     O_R   0.090160 0.552180 0.999990 -0.477764
O2    O     O_R   0.052180 0.409840 0.499990 -0.477764
O3    O     O_R   0.409840 0.947820 0.499990 -0.477764
O4    O     O_R   0.947820 0.590160 0.499990 -0.477764
O5    O     O_R   0.590160 0.947820 0.500010 -0.477764
O6    O     O_R   0.052180 0.590160 0.500010 -0.477764
O7    O     O_R   0.409840 0.052180 0.500010 -0.477764
O8    O     O_R   0.947820 0.409840 0.500010 -0.477764
O9    O     O_R   0.999980 0.552180 0.081400 -0.504084
O10   O     O_R   0.552180 0.000020 0.081400 -0.504084
O11   O     O_R   0.000020 0.447820 0.081400 -0.504084
O12   O     O_R   0.552180 0.909840 0.999990 -0.477764
O13   O     O_R   0.447820 0.999980 0.081400 -0.504084
O14   O     O_R   0.999980 0.447820 0.918600 -0.504083
O15   O     O_R   0.552180 0.999980 0.918600 -0.504084
O16   O     O_R   0.000020 0.552180 0.918600 -0.504084
O17   O     O_R   0.447820 0.000020 0.918600 -0.504083
O18   O     O_R   0.499980 0.052180 0.581400 -0.504084
O19   O     O_R   0.052180 0.500020 0.581400 -0.504084
O20   O     O_R   0.500020 0.947820 0.581400 -0.504084
O21   O     O_R   0.947820 0.499980 0.581400 -0.504084
O22   O     O_R   0.499980 0.947820 0.418600 -0.504084
O23   O     O_R   0.909840 0.447820 0.999990 -0.477764
O24   O     O_R   0.052180 0.499980 0.418600 -0.504084
O25   O     O_R   0.500020 0.052180 0.418600 -0.504084
O26   O     O_R   0.947820 0.500020 0.418600 -0.504084
O27   O     O_R   0.499980 0.590270 0.952910 -0.481863
O28   O     O_R   0.590270 0.500020 0.952910 -0.481863
O29   O     O_R   0.500020 0.409730 0.952910 -0.481864
O30   O     O_R   0.409730 0.499980 0.952910 -0.481864
O31   O     O_R   0.499980 0.409730 0.047090 -0.481863
O32   O     O_R   0.590270 0.499980 0.047090 -0.481864
O33   O     O_R   0.500020 0.590270 0.047090 -0.481864
O34   O     O_R   0.447820 0.090160 0.999990 -0.477764
O35   O     O_R   0.409730 0.500020 0.047090 -0.481864
O36   O     O_R   0.999980 0.090270 0.452910 -0.481864
O37   O     O_R   0.090270 0.000020 0.452910 -0.481864
O38   O     O_R   0.000020 0.909730 0.452910 -0.481864
O39   O     O_R   0.909730 0.999980 0.452910 -0.481863
O40   O     O_R   0.999980 0.909730 0.547090 -0.481864
O41   O     O_R   0.090270 0.999980 0.547090 -0.481864
O42   O     O_R   0.000020 0.090270 0.547090 -0.481864
O43   O     O_R   0.909730 0.000020 0.547090 -0.481864
O44   O     O_3   0.184633 0.425849 0.924081 -0.555726
O45   O     O_R   0.090160 0.447820 0.000010 -0.477764
O46   O     O_3   0.425849 0.815367 0.924081 -0.555726
O47   O     O_3   0.815367 0.574151 0.924082 -0.555726
O48   O     O_3   0.574151 0.184633 0.924082 -0.555726
O49   O     O_3   0.184633 0.574151 0.075918 -0.555726
O50   O     O_3   0.425849 0.184633 0.075918 -0.555726
O51   O     O_3   0.815367 0.425849 0.075918 -0.555726
O52   O     O_3   0.574151 0.815367 0.075918 -0.555726
O53   O     O_3   0.684633 0.925849 0.424081 -0.555726
O54   O     O_3   0.925849 0.315367 0.424081 -0.555726
O55   O     O_3   0.315367 0.074151 0.424081 -0.555726
O56   O     O_R   0.552180 0.090160 0.000010 -0.477764
O57   O     O_3   0.074151 0.684633 0.424081 -0.555726
O58   O     O_3   0.684633 0.074151 0.575919 -0.555726
O59   O     O_3   0.925849 0.684633 0.575919 -0.555726
O60   O     O_3   0.315367 0.925849 0.575919 -0.555726
O61   O     O_3   0.074151 0.315367 0.575919 -0.555726
O62   O     O_2   0.359776 0.387589 0.942308 -0.473952
O63   O     O_2   0.387589 0.640224 0.942308 -0.473952
O64   O     O_2   0.640224 0.612410 0.942308 -0.473952
O65   O     O_2   0.612411 0.359776 0.942308 -0.473951
O66   O     O_2   0.359776 0.612411 0.057692 -0.473952
O67   O     O_R   0.909840 0.552180 0.000010 -0.477764
O68   O     O_2   0.387589 0.359776 0.057692 -0.473951
O69   O     O_2   0.640224 0.387589 0.057692 -0.473951
O70   O     O_2   0.612411 0.640224 0.057692 -0.473952
O71   O     O_2   0.859776 0.887589 0.442308 -0.473951
O72   O     O_2   0.887589 0.140224 0.442308 -0.473952
O73   O     O_2   0.140224 0.112411 0.442308 -0.473951
O74   O     O_2   0.112411 0.859776 0.442308 -0.473951
O75   O     O_2   0.859776 0.112411 0.557692 -0.473951
O76   O     O_2   0.887589 0.859776 0.557692 -0.473951
O77   O     O_2   0.140224 0.887589 0.557692 -0.473951
O78   O     O_R   0.447820 0.909840 0.000010 -0.477764
O79   O     O_2   0.112411 0.140224 0.557692 -0.473952
O80   O     O_R   0.590160 0.052180 0.499990 -0.477764

loop_
_geom_bond_atom_site_label_1
_geom_bond_atom_site_label_2
_ccdc_geom_bond_type
C57   C105  A    
C115  H9    S    
C33   O12   A    
C61   O58   S    
C1    C101  S    
Cu12  O27   S    
C14   C71   S    
C109  H12   S    
C13   C32   S    
C66   O80   A    
C51   O48   S    
C34   C42   T    
C120  O55   S    
Cu1   O9    S    
C52   O49   S    
C117  O52   S    
C44   O67   A    
C79   C87   A    
C49   O46   S    
Cu5   O15   S    
Cu3   Cu4   S    
C19   O73   D    
C6    H40   S    
C31   C40   T    
C40   C46   S    
C99   C108  S    
C56   O52   S    
C60   C78   A    
C111  H56   S    
C18   C75   S    
C82   C89   A    
C9    C67   S    
C30   C110  S    
C117  H16   S    
C10   H47   S    
C28   C37   S    
C88   O3    A    
C62   C80   A    
C19   C76   S    
C95   O35   A    
C91   C98   S    
Cu9   O24   S    
C5    H37   S    
C116  H13   S    
Cu2   O32   S    
C27   O19   A    
C5    H36   S    
C114  O49   S    
C62   C108  A    
C33   O78   A    
Cu2   O31   S    
C53   C104  A    
Cu8   Cu10  S    
Cu3   O38   S    
C7    H42   S    
C35   C43   T    
Cu5   O10   S    
C61   C79   A    
C4    H33   S    
C100  O43   A    
C26   O20   A    
C117  H15   S    
Cu1   O16   S    
Cu10  O22   S    
C58   O54   S    
C53   O50   S    
C112  H64   S    
C55   O34   A    
C86   C94   S    
C3    H30   S    
C19   H55   S    
Cu3   O37   S    
C66   O5    A    
C85   C93   S    
C44   C103  S    
C112  O47   S    
Cu8   O80   S    
Cu3   O36   S    
C12   H49   S    
C17   H53   S    
C28   O25   A    
C113  H4    S    
C15   H51   S    
C99   O4    A    
C120  H27   S    
C32   C41   T    
C4    H32   S    
Cu10  O20   S    
C110  O11   A    
C2    O10   A    
C4    O58   S    
C48   C65   A    
C93   O28   A    
C61   C105  A    
C77   O2    A    
C90   C97   S    
Cu9   O2    S    
C94   O29   A    
C71   C86   A    
C115  O50   S    
C51   C69   A    
C22   C80   S    
C5    H35   S    
C112  H62   S    
C115  H10   S    
C97   O37   A    
C50   C103  A    
C119  H21   S    
C120  H26   S    
C68   C85   A    
C13   O16   A    
C29   O26   A    
C44   O23   A    
C109  H23   S    
C13   O14   A    
C63   C107  A    
Cu2   Cu12  S    
C23   H60   S    
C48   O44   S    
C24   O15   A    
Cu7   O13   S    
C58   C75   A    
C72   C85   A    
C6    H39   S    
C29   O24   A    
C9    H46   S    
C62   O59   S    
C1    O1    A    
C52   C101  A    
Cu11  O26   S    
C109  H1    S    
C16   C73   S    
C73   C84   A    
C70   C83   A    
C54   C103  A    
C96   O36   A    
C50   O47   S    
Cu6   O14   S    
C119  O54   S    
C49   C102  A    
C88   C107  S    
C3    H29   S    
Cu7   O17   S    
C51   C104  A    
C114  H7    S    
C55   C104  S    
C18   H54   S    
Cu7   O34   S    
C59   C107  A    
C33   C102  S    
C7    H43   S    
C2    C31   S    
C58   C106  A    
C65   C83   A    
C57   C74   A    
Cu9   O19   S    
C3    O57   S    
C112  H63   S    
Cu2   O35   S    
Cu5   Cu7   S    
Cu12  O30   S    
C27   C36   S    
C116  H11   S    
Cu4   O42   S    
C24   O17   A    
C84   C92   S    
C8    C65   S    
C63   O60   S    
C98   O38   A    
C116  O51   S    
Cu6   O11   S    
C113  O48   S    
C83   C95   S    
C21   C79   S    
Cu6   O45   S    
C11   C69   S    
C25   C82   S    
C4    H31   S    
C6    O60   S    
C36   C45   T    
C111  H34   S    
C12   O66   D    
C54   O51   S    
C118  H20   S    
Cu11  O8    S    
C64   C82   A    
C38   C47   T    
C14   H50   S    
Cu10  O5    S    
C1    O45   A    
C94   O31   A    
Cu3   O39   S    
Cu9   O6    S    
C114  H6    S    
C63   C81   A    
C27   O21   A    
C119  H22   S    
C113  H2    S    
C9    O63   D    
C99   O6    A    
C59   O55   S    
C120  H25   S    
C74   C87   A    
C10   O64   D    
C7    O61   S    
C42   C43   S    
C81   C90   A    
Cu7   O78   S    
C57   O53   S    
Cu10  O3    S    
C53   C71   A    
C77   O8    A    
C20   O74   D    
C20   H57   S    
C25   H61   S    
C64   O61   S    
C21   O75   D    
C39   C47   S    
C87   C100  S    
C6    H38   S    
C109  O44   S    
C22   O76   D    
Cu4   O43   S    
Cu2   O33   S    
C12   C70   S    
C77   C106  S    
C2    O13   A    
C28   O22   A    
C56   C73   A    
C49   C67   A    
C17   C74   S    
Cu12  O28   S    
C96   O42   A    
C29   C38   S    
Cu5   O56   S    
C23   C81   S    
C15   O69   D    
C118  O53   S    
C60   C108  A    
Cu8   O25   S    
Cu1   O1    S    
C16   H52   S    
C64   C106  A    
C10   C68   S    
C78   C91   A    
C111  O46   S    
C97   O41   A    
Cu5   O12   S    
C69   C86   A    
C20   C78   S    
C26   O18   A    
C92   O27   A    
C5    O59   S    
C89   C96   S    
Cu11  O4    S    
C22   H59   S    
C95   O30   A    
C118  H18   S    
Cu1   Cu6   S    
C25   O79   D    
Cu12  O29   S    
Cu1   O67   S    
C116  H14   S    
Cu4   O41   S    
C23   O77   D    
C93   O32   A    
C21   H58   S    
C3    H28   S    
C50   C68   A    
C92   O33   A    
C80   C91   A    
C48   C101  A    
C7    H41   S    
C60   O57   S    
C37   C46   T    
C15   C72   S    
C30   C39   T    
C110  O9    A    
C114  H5    S    
C88   O7    A    
C8    O62   D    
C118  H19   S    
C14   O68   D    
C24   C34   S    
C18   O72   D    
C52   C70   A    
C75   C89   A    
C56   C102  A    
Cu4   O40   S    
C119  H24   S    
C26   C35   S    
C67   C84   A    
C54   C72   A    
C115  H8    S    
C17   O71   D    
C113  H3    S    
C11   O65   D    
Cu8   O18   S    
C111  H45   S    
C41   C45   S    
C55   O56   A    
C100  O39   A    
C117  H17   S    
C11   H48   S    
C66   C105  S    
Cu11  O21   S    
C8    H44   S    
C59   C76   A    
Cu8   O7    S    
C16   O70   D    
Cu6   O23   S    
C76   C90   A    
Cu9   Cu11  S    
C98   O40   A    
