data_mof_unit_36082.cif
_audit_creation_date              2013-03-05T16:30:24-0500
_audit_creation_method            fapswitch 2.2
_symmetry_space_group_name_H-M    P1
_symmetry_Int_Tables_number       1
_space_group_crystal_system       triclinic
_cell_length_a                    10.832723
_cell_length_b                    19.399954
_cell_length_c                    18.121214
_cell_angle_alpha                 90.538336
_cell_angle_beta                  90.028466
_cell_angle_gamma                 90.202591
_cell_volume                      3808.05911396

loop_
_atom_site_label
_atom_site_type_symbol
_atom_site_description
_atom_site_fract_x
_atom_site_fract_y
_atom_site_fract_z
_atom_type_partial_charge
O1    O     O_R   0.499950 0.400180 0.561980 -0.585038
O2    O     O_R   0.500050 0.599820 0.438020 -0.589278
O3    O     O_R   0.500010 0.400190 0.438070 -0.589819
O4    O     O_R   0.499990 0.599810 0.561930 -0.587920
C1    C     C_R   0.498625 0.367408 0.499586 0.813858
C2    C     C_R   0.499694 0.632582 0.500360 0.815899
O5    O     O_R   0.319610 0.500000 0.561950 -0.589216
O6    O     O_R   0.680390 0.500000 0.438050 -0.585712
O7    O     O_R   0.319670 0.500010 0.438050 -0.574937
O8    O     O_R   0.680330 0.499990 0.561950 -0.575936
C3    C     C_R   0.262063 0.501849 0.499857 0.798753
C4    C     C_R   0.737940 0.498136 0.500136 0.802412
Cu1   Cu    Cu3+1 0.499960 0.500000 0.573360 0.946560
Cu2   Cu    Cu3+1 0.500040 0.500000 0.426640 0.946322
H1    H     H_    0.290774 0.644766 0.208068 0.130447
H2    H     H_    0.715261 0.350483 0.791254 0.137644
C5    C     C_R   0.253666 0.652313 0.324616 -0.099165
C6    C     C_R   0.749105 0.345453 0.674226 -0.098738
H3    H     H_    0.309705 0.698075 0.332455 0.129282
H4    H     H_    0.693720 0.299516 0.665933 0.130959
C7    C     C_R   0.192763 0.623014 0.384758 -0.086396
C8    C     C_R   0.808004 0.376160 0.614195 -0.087917
H5    H     H_    0.202856 0.646316 0.438994 0.111326
H6    H     H_    0.797134 0.353706 0.559610 0.111639
C9    C     C_R   0.121051 0.563071 0.375021 0.125399
C10   C     C_R   0.879267 0.436176 0.624581 0.112143
C11   C     C_R   0.108840 0.533971 0.304109 -0.162336
C12   C     C_R   0.892769 0.464051 0.695984 -0.148011
H7    H     H_    0.053920 0.487811 0.295606 0.123594
H8    H     H_    0.947299 0.510269 0.705029 0.138275
C13   C     C_R   0.169976 0.563433 0.244148 -0.151845
C14   C     C_R   0.833812 0.433097 0.755847 -0.128409
H9    H     H_    0.161734 0.540246 0.189800 0.124569
H10   H     H_    0.843341 0.455196 0.810629 0.146106
C15   C     C_R   0.242797 0.622348 0.254452 -0.101956
C16   C     C_R   0.761524 0.374070 0.744923 -0.113448
C17   C     C_R   0.933399 0.525288 0.440113 -0.222498
C18   C     C_R   0.066625 0.474745 0.559844 -0.222144
H11   H     H_    0.881621 0.546459 0.394395 0.156568
H12   H     H_    0.118442 0.453480 0.605497 0.153676
C19   C     C_R   0.871774 0.496663 0.500445 -0.082025
C20   C     C_R   0.128237 0.503360 0.499527 -0.082855
C21   C     C_R   0.938803 0.470318 0.560842 0.004186
C22   C     C_R   0.061231 0.529636 0.439089 -0.000235
C23   C     C_R   0.519203 0.745313 0.436783 -0.197230
C24   C     C_R   0.479020 0.254544 0.563161 -0.198122
H13   H     H_    0.534057 0.718944 0.384608 0.153677
H14   H     H_    0.474305 0.280671 0.616154 0.156787
C25   C     C_R   0.520509 0.816988 0.438579 -0.135978
C26   C     C_R   0.471390 0.182979 0.560752 -0.140997
H15   H     H_    0.534671 0.844805 0.387685 0.165414
H16   H     H_    0.463244 0.154894 0.611940 0.166203
C27   C     C_R   0.502733 0.852806 0.505265 0.057201
C28   C     C_R   0.476221 0.147551 0.493053 0.062642
C29   C     C_R   0.482464 0.816099 0.571221 0.378968
C30   C     C_R   0.488007 0.184397 0.426460 0.369833
C31   C     C_R   0.480586 0.743958 0.568518 -0.252912
C32   C     C_R   0.497174 0.256368 0.429872 -0.255682
H17   H     H_    0.465725 0.715685 0.619027 0.180706
H18   H     H_    0.506155 0.284888 0.379087 0.181768
C33   C     C_R   0.499471 0.708272 0.501724 -0.097716
C34   C     C_R   0.492696 0.291750 0.497798 -0.096894
C35   C     C_R   0.386546 0.961016 0.519521 -0.205342
C36   C     C_R   0.590878 0.039445 0.477869 -0.215580
H19   H     H_    0.307000 0.929938 0.534042 0.200313
H20   H     H_    0.670406 0.070508 0.463245 0.198285
C37   C     C_R   0.374730 0.032656 0.515013 0.369694
C38   C     C_R   0.602913 0.967919 0.482895 0.364529
C39   C     C_R   0.478760 0.071963 0.494117 -0.049600
C40   C     C_R   0.498924 0.928480 0.503634 -0.051035
C41   C     C_R   0.418808 0.459599 0.721045 0.064751
C42   C     C_R   0.569270 0.546328 0.278547 0.078247
H21   H     H_    0.354438 0.427265 0.690798 0.133642
H22   H     H_    0.625068 0.583624 0.308366 0.130413
C43   C     C_R   0.418373 0.459007 0.798452 -0.347189
C44   C     C_R   0.569415 0.546028 0.201300 -0.375592
H23   H     H_    0.353969 0.425562 0.826656 0.164730
H24   H     H_    0.625153 0.583541 0.172398 0.161084
C45   C     C_R   0.501928 0.500440 0.838716 -0.003906
C46   C     C_R   0.497136 0.498015 0.161788 0.023443
C47   C     C_R   0.584005 0.542882 0.798439 0.356996
C48   C     C_R   0.424771 0.450092 0.201398 0.382109
C49   C     C_R   0.582344 0.540588 0.720811 0.025275
C50   C     C_R   0.429617 0.452393 0.279972 -0.024130
H25   H     H_    0.646805 0.571906 0.690096 0.139266
H26   H     H_    0.378987 0.416086 0.313084 0.132676
N1    N     N_R   0.499990 0.500020 0.683620 -0.195431
N2    N     N_R   0.500010 0.499980 0.316380 -0.184403
C51   C     C_R   0.611989 0.497513 0.962420 -0.134416
C52   C     C_R   0.387636 0.499740 0.038496 -0.112198
H27   H     H_    0.700050 0.495069 0.934345 0.162822
H28   H     H_    0.299745 0.501335 0.066913 0.135918
C53   C     C_R   0.610554 0.497537 0.039957 -0.203032
C54   C     C_R   0.389053 0.500346 0.960984 -0.206767
H29   H     H_    0.697371 0.495860 0.069537 0.140414
H30   H     H_    0.302035 0.502496 0.931688 0.138332
C55   C     C_R   0.498374 0.498288 0.079035 0.164140
C56   C     C_R   0.501245 0.499478 0.921690 0.127016
N3    N     N_R   0.256985 0.064041 0.530363 0.135128
O9    O     O_R   0.223202 0.119817 0.496631 -0.326445
O10   O     O_R   0.177645 0.033158 0.572778 -0.306143
N4    N     N_R   0.721181 0.936762 0.468693 0.132297
O11   O     O_R   0.799672 0.966536 0.424838 -0.310627
O12   O     O_R   0.756654 0.883025 0.505440 -0.320164
O13   O     O_3   0.669557 0.584687 0.833760 -0.637075
C57   C     C_3   0.613899 0.647804 0.854693 0.041879
H31   H     H_    0.656743 0.664573 0.907642 0.177850
H32   H     H_    0.512567 0.643676 0.865407 0.136392
C58   C     C_3   0.639335 0.702814 0.796483 -0.384879
H33   H     H_    0.740079 0.705256 0.785120 0.241829
H34   H     H_    0.590799 0.688970 0.744376 0.214529
C59   C     C_3   0.595509 0.773651 0.822390 -0.750264
H35   H     H_    0.494364 0.772846 0.832422 0.270553
H36   H     H_    0.616146 0.812340 0.779319 0.299713
H37   H     H_    0.643897 0.789237 0.873999 0.239035
O14   O     O_3   0.361928 0.399354 0.160747 -0.609895
C60   C     C_3   0.260983 0.368959 0.198016 0.004049
H38   H     H_    0.188304 0.357698 0.156309 0.173390
H39   H     H_    0.216209 0.404293 0.238586 0.120780
C61   C     C_3   0.299843 0.300282 0.232235 -0.313167
H40   H     H_    0.315009 0.261629 0.187519 0.250123
H41   H     H_    0.388246 0.306375 0.262593 0.228828
C62   C     C_3   0.201881 0.273274 0.285144 -0.826568
H42   H     H_    0.188693 0.310204 0.331690 0.243916
H43   H     H_    0.232014 0.223108 0.307911 0.297700
H44   H     H_    0.112775 0.265653 0.255775 0.258633
N5    N     N_R   0.465047 0.850855 0.640939 0.112115
O15   O     O_R   0.396102 0.823174 0.691524 -0.369155
O16   O     O_R   0.526455 0.906808 0.656917 -0.334475
N6    N     N_R   0.489345 0.150073 0.355566 0.117904
O17   O     O_R   0.427573 0.093215 0.344776 -0.325443
O18   O     O_R   0.541725 0.179311 0.299257 -0.359273

loop_
_geom_bond_atom_site_label_1
_geom_bond_atom_site_label_2
_geom_bond_distance
_ccdc_geom_bond_type
C32   C34   1.404656 A    
C49   N1    1.361603 A    
C35   H19   1.083882 S    
C46   C55   1.499698 S    
C11   H7    1.083117 S    
C45   C56   1.503895 S    
C42   C44   1.399769 A    
C59   H36   1.110187 S    
C62   H42   1.111124 S    
O5    C3    1.286930 A    
C26   C28   1.401640 A    
C43   C45   1.407434 A    
C24   C34   1.400484 A    
O1    C1    1.291969 A    
C36   C38   1.398001 A    
C2    C33   1.468361 S    
C18   H12   1.085020 S    
C44   H24   1.082996 S    
C18   C20   1.399217 A    
C60   H39   1.113041 S    
N4    O12   1.301352 A    
C31   H17   1.083261 S    
C57   H31   1.111077 S    
C54   C56   1.408951 A    
C32   H18   1.082484 S    
O14   C60   1.415354 S    
C3    C20   1.450108 S    
C23   C33   1.400729 A    
O4    Cu1   1.949287 S    
C47   C49   1.407105 A    
C25   H15   1.083613 S    
C26   H16   1.083642 S    
C13   H9    1.082391 S    
C51   H27   1.082322 S    
C52   C55   1.406857 A    
C61   C62   1.525268 S    
C37   N3    1.441409 S    
C8    H6    1.083252 S    
C23   H13   1.083112 S    
C53   H29   1.083001 S    
Cu1   Cu2   2.658743 S    
C51   C53   1.405152 A    
C19   C21   1.413740 A    
O2    C2    1.291000 A    
C20   C22   1.413700 A    
C27   C40   1.469366 S    
C9    C22   1.483393 S    
H1    C15   1.082342 S    
C59   H35   1.110831 S    
C42   N2    1.359671 A    
C61   H41   1.109570 S    
C10   C21   1.483515 S    
C52   C54   1.404870 A    
C35   C37   1.399299 A    
C27   C29   1.413853 A    
C7    H5    1.083257 S    
C28   C30   1.413930 A    
C11   C13   1.398429 A    
C44   C46   1.405383 A    
C12   C14   1.398399 A    
C46   C48   1.414922 A    
C58   C59   1.525463 S    
C41   H21   1.081752 S    
C62   H44   1.110787 S    
C5    C7    1.398499 A    
C37   C39   1.412302 A    
C36   H20   1.084037 S    
N6    O18   1.301569 A    
O7    Cu2   1.964910 S    
N5    O16   1.301325 A    
C4    C19   1.450170 S    
O7    C3    1.282674 A    
C52   H28   1.083057 S    
N3    O9    1.301319 A    
C35   C40   1.401997 A    
C23   C25   1.390577 A    
O6    C4    1.286860 A    
Cu1   N1    1.998043 S    
C36   C39   1.400732 A    
C54   H30   1.082752 S    
C43   H23   1.082743 S    
O3    Cu2   1.949291 S    
O8    C4    1.282799 A    
C41   N1    1.361604 A    
C42   H22   1.081707 S    
C49   H25   1.081794 S    
C29   N5    1.439260 S    
C48   C50   1.425070 A    
C29   C31   1.400018 A    
C13   C15   1.397482 A    
C60   C61   1.534937 S    
O4    C2    1.289345 A    
O1    Cu1   1.945524 S    
N5    O15   1.301360 A    
C53   C55   1.406848 A    
C61   H40   1.111522 S    
C45   C47   1.417022 A    
C47   O13   1.382261 S    
C7    C9    1.405899 A    
O6    Cu2   1.964490 S    
N3    O10   1.301569 A    
C6    C8    1.398396 A    
C50   N2    1.360924 A    
C38   N4    1.440767 S    
O3    C1    1.288648 A    
O8    Cu1   1.964909 S    
C14   C16   1.397475 A    
C31   C33   1.404163 A    
C9    C11   1.404683 A    
O13   C57   1.415438 S    
C24   C26   1.390796 A    
C10   C12   1.405041 A    
C51   C56   1.409034 A    
C17   C22   1.387189 A    
C58   H34   1.110809 S    
N6    O17   1.301278 A    
Cu2   N2    1.998043 S    
C18   C21   1.387152 A    
C17   H11   1.084995 S    
C58   H33   1.111620 S    
H2    C16   1.082324 S    
C41   C43   1.402875 A    
C28   C39   1.467078 S    
C57   H32   1.117563 S    
C25   C27   1.402020 A    
C12   H8    1.083113 S    
C5    H3    1.081953 S    
C30   C32   1.400185 A    
C1    C34   1.468998 S    
C6    H4    1.081814 S    
C17   C19   1.399584 A    
N4    O11   1.301532 A    
O2    Cu2   1.945523 S    
C62   H43   1.110659 S    
C48   O14   1.398609 S    
C24   H14   1.082950 S    
O5    Cu1   1.964491 S    
C38   C40   1.412559 A    
C8    C10   1.405831 A    
C50   H26   1.078189 S    
C5    C15   1.397799 A    
C60   H38   1.110792 S    
C6    C16   1.397691 A    
C59   H37   1.110800 S    
C30   N6    1.441541 S    
C14   H10   1.082370 S    
C57   C58   1.531951 S    
