data_mof_unit_61162.cif
_audit_creation_date              2012-12-11T17:11:08-0500
_audit_creation_method            fapswitch 2.2
_symmetry_space_group_name_H-M    P1
_symmetry_Int_Tables_number       1
_space_group_crystal_system       triclinic
_cell_length_a                    8.188742
_cell_length_b                    16.513188
_cell_length_c                    16.413596
_cell_angle_alpha                 108.391685
_cell_angle_beta                  92.788755
_cell_angle_gamma                 82.572515
_cell_volume                      2088.37111407

loop_
_atom_site_label
_atom_site_type_symbol
_atom_type_description
_atom_site_fract_x
_atom_site_fract_y
_atom_site_fract_z
_atom_type_partial_charge
Ba1   Ba    Ba6+2 0.642070 0.542310 0.469620 1.638592
Ba2   Ba    Ba6+2 0.168110 0.457680 0.530320 1.642808
C1    C     C_3   0.801346 0.757992 0.206925 -0.365129
C2    C     C_3   0.818662 0.730289 0.287169 0.348961
C3    C     C_3   0.940101 0.720820 0.700810 0.307116
C4    C     C_3   0.927637 0.817692 0.742595 -0.384797
C5    C     C_3   0.477198 0.222913 0.662761 0.357700
C6    C     C_3   0.486231 0.133532 0.671761 -0.350811
C7    C     C_3   0.986991 0.270050 0.716201 0.335266
C8    C     C_3   0.012142 0.243454 0.796987 -0.328313
C9    C     C_2   0.710522 0.248461 0.481427 -0.292127
C10   C     C_R   0.101312 0.751016 0.524181 -0.299125
C11   C     C_2   0.539399 0.138145 0.401074 -0.130238
C12   C     C_3   0.323773 0.774743 0.336850 0.347593
C13   C     C_2   0.562049 0.221733 0.431024 0.057346
C14   C     C_2   0.821931 0.191318 0.502827 0.011051
C15   C     C_3   0.774031 0.103420 0.494921 -0.052223
C16   C     C_3   0.666739 0.069200 0.415166 0.009615
C17   C     C_2   0.912384 0.036681 0.502440 -0.079603
C18   C     C_2   0.877999 0.965061 0.516754 -0.079171
C19   C     C_R   0.154438 0.923189 0.572042 -0.005471
C20   C     C_R   0.006968 0.898602 0.529777 -0.039830
C21   C     C_R   0.272260 0.862802 0.591638 -0.127600
C22   C     C_R   0.244773 0.776516 0.568439 0.062757
C23   C     C_3   0.307768 0.864079 0.327327 -0.362679
C24   C     C_R   0.980464 0.811361 0.506320 0.011947
C25   C     C_R   0.111907 0.532007 0.273392 -0.298653
C26   C     C_R   0.978879 0.487329 0.238592 0.028312
C27   C     C_R   0.927309 0.479640 0.153863 -0.117111
C28   C     C_R   0.010720 0.516676 0.103487 0.252152
C29   C     C_R   0.149780 0.557823 0.138760 -0.164033
C30   C     C_R   0.201114 0.564500 0.223112 -0.006734
C31   C     C_R   0.873214 0.516732 0.856777 -0.118728
C32   C     C_R   0.824390 0.511839 0.772620 0.002845
C33   C     C_R   0.787912 0.477414 0.904393 0.252219
C34   C     C_3   0.351849 0.351168 0.261459 0.282437
C35   C     C_R   0.693712 0.466885 0.734579 -0.284039
C36   C     C_R   0.601866 0.432221 0.781659 -0.005304
C37   C     C_R   0.649522 0.436574 0.866268 -0.168892
C38   C     C_3   0.374212 0.334362 0.165192 -0.196267
C39   C     C_3   0.460046 0.649133 0.737717 0.307259
C40   C     C_3   0.475104 0.672826 0.834958 -0.387258
C41   C     C_3   0.867462 0.281834 0.316972 0.339752
C42   C     C_3   0.888243 0.184699 0.275715 -0.367880
H1    H     H_    0.754699 0.672277 0.275485 0.096408
H2    H     H_    0.336687 0.394926 0.149908 -0.003464
H3    H     H_    0.506819 0.314740 0.149225 0.075715
H4    H     H_    0.582957 0.625087 0.708975 0.006657
H5    H     H_    0.378034 0.597972 0.714871 0.070371
H6    H     H_    0.564384 0.720436 0.859135 0.133609
H7    H     H_    0.518190 0.615006 0.854132 0.061452
H8    H     H_    0.353242 0.700885 0.864701 0.126333
H9    H     H_    0.738697 0.303701 0.337764 -0.013342
H10   H     H_    0.951743 0.297925 0.373273 0.065113
H11   H     H_    0.669167 0.774063 0.193063 0.147412
H12   H     H_    0.802216 0.166481 0.220311 0.122643
H13   H     H_    0.862292 0.152548 0.322703 0.047184
H14   H     H_    0.016714 0.161910 0.253219 0.157560
H15   H     H_    0.951704 0.713951 0.298709 -0.054633
H16   H     H_    0.855865 0.704996 0.151323 0.083410
H17   H     H_    0.068830 0.696680 0.679701 0.016939
H18   H     H_    0.855977 0.707310 0.644219 0.060233
H19   H     H_    0.013258 0.833415 0.798439 0.130513
H20   H     H_    0.960559 0.848746 0.695802 0.058485
H21   H     H_    0.799712 0.843475 0.764627 0.127847
H22   H     H_    0.866520 0.815265 0.216277 0.112266
H23   H     H_    0.251544 0.912034 0.385965 0.072068
H24   H     H_    0.403877 0.223724 0.604278 0.091806
H25   H     H_    0.604257 0.235875 0.655252 -0.063309
H26   H     H_    0.361060 0.118874 0.680802 0.152764
H27   H     H_    0.540030 0.084808 0.613012 0.066566
H28   H     H_    0.564736 0.129762 0.727867 0.116088
H29   H     H_    0.852706 0.278885 0.703215 -0.060382
H30   H     H_    0.037245 0.332114 0.728097 0.092804
H31   H     H_    0.948301 0.293729 0.851712 0.090344
H32   H     H_    0.145477 0.235033 0.812598 0.170102
H33   H     H_    0.402061 0.775092 0.394061 0.094674
H34   H     H_    0.960858 0.181978 0.787236 0.110755
H35   H     H_    0.435026 0.118369 0.359476 0.094401
H36   H     H_    0.382567 0.883809 0.626595 0.096938
H37   H     H_    0.734675 0.314401 0.494378 0.069621
H38   H     H_    0.080818 0.684251 0.506882 0.077110
H39   H     H_    0.039209 0.045476 0.494921 0.103374
H40   H     H_    0.749857 0.955676 0.519569 0.105415
H41   H     H_    0.975246 0.552182 0.884831 0.106033
H42   H     H_    0.218414 0.584139 0.100340 0.093093
H43   H     H_    0.824229 0.444310 0.127639 0.115212
H44   H     H_    0.198934 0.760545 0.347132 -0.057870
H45   H     H_    0.578906 0.408780 0.902482 0.103091
H46   H     H_    0.152080 0.537075 0.338417 0.077839
H47   H     H_    0.656764 0.463720 0.669537 0.069881
H48   H     H_    0.431108 0.880958 0.318249 0.146349
H49   H     H_    0.228138 0.866187 0.271120 0.113229
H50   H     H_    0.219882 0.366462 0.277748 0.009737
H51   H     H_    0.416895 0.407442 0.295561 0.050890
N1    N     N_2   0.962670 0.513030 0.017527 -0.230371
N2    N     N_2   0.833768 0.479616 0.990418 -0.226922
O1    O     O_2   0.554430 0.712240 0.583340 -0.458008
O2    O     O_3   0.904244 0.319677 0.256066 -0.604702
O3    O     O_3   0.396443 0.714523 0.262709 -0.598910
O4    O     O_2   0.255890 0.287710 0.416620 -0.456407
O5    O     O_3   0.472550 0.396030 0.437270 -0.502549
O6    O     O_3   0.997190 0.341000 0.573500 -0.484242
O7    O     O_3   0.416769 0.277851 0.283242 -0.618302
O8    O     O_3   0.856110 0.544300 0.605450 -0.480456
O9    O     O_3   0.397490 0.384750 0.623120 -0.491133
O10   O     O_2   0.259814 0.441351 0.778187 -0.481086
O11   O     O_3   0.401828 0.283411 0.735840 -0.591335
O12   O     O_3   0.337760 0.603960 0.562660 -0.498612
O13   O     O_3   0.954190 0.455690 0.394480 -0.494932
O14   O     O_2   0.106750 0.542200 0.705290 -0.458632
O15   O     O_3   0.895474 0.683208 0.760819 -0.640542
O16   O     O_2   0.162251 0.189496 0.491695 -0.497420
O17   O     O_3   0.069868 0.206317 0.647718 -0.599725
O18   O     O_3   0.813110 0.658990 0.426440 -0.491356
O19   O     O_2   0.639681 0.808988 0.507856 -0.498047
O20   O     O_3   0.395131 0.722560 0.716526 -0.634480
O21   O     O_3   0.747106 0.797399 0.356757 -0.601879
O22   O     O_2   0.703570 0.457750 0.294670 -0.468397
O23   O     O_3   0.412810 0.615240 0.376810 -0.491878
O24   O     O_2   0.543445 0.556871 0.220427 -0.483779
P1    P     P_3+3 0.385820 0.698700 0.604730 0.980854
P2    P     P_3+3 0.884390 0.431600 0.301750 0.995892
P3    P     P_3+3 0.389333 0.611236 0.269269 0.951843
P4    P     P_3+3 0.424480 0.301290 0.395200 0.993504
P5    P     P_3+3 0.414863 0.386649 0.730680 0.961269
P6    P     P_3+3 0.793196 0.770547 0.450997 0.942556
P7    P     P_3+3 0.917037 0.571500 0.713497 0.946444
P8    P     P_3+3 0.014910 0.230084 0.552720 0.942809
C43   C     C_2   0.275371 0.266517 0.109355 0.885615
O25   O     O_2   0.278611 0.250388 0.031425 -0.610665
O26   O     O_R   0.180951 0.222014 0.145428 -0.734134
H52   H     H_    0.120132 0.178607 0.100556 0.307065

loop_
_geom_bond_atom_site_label_1
_geom_bond_atom_site_label_2
_ccdc_geom_bond_type
C38   H3    S    
C11   H35   S    
Ba2   O12   S    
C23   H49   S    
C10   C22   A    
C32   C35   A    
C39   C40   S    
C30   P3    S    
C33   C37   A    
C17   C18   D    
C23   H23   S    
O20   P1    S    
O5    P4    S    
C8    H34   S    
C26   P2    S    
C5    C6    S    
C9    H37   S    
C38   H2    S    
C35   C36   A    
O16   P8    D    
C11   C16   S    
C7    O17   S    
C26   C27   A    
C41   O2    S    
C28   C29   A    
O13   P2    S    
O12   P1    S    
Ba2   O5    S    
O18   P6    S    
C25   H46   S    
Ba1   Ba2   S    
Ba1   O22   S    
C12   H33   S    
C4    H20   S    
C31   H41   S    
Ba1   P1    S    
O24   P3    D    
C28   N1    S    
Ba1   O12   S    
C5    H24   S    
C1    H11   S    
C41   H9    S    
C4    H21   S    
O7    P4    S    
C42   H14   S    
O26   H52   S    
C23   H48   S    
O19   P6    D    
O4    P4    D    
C21   C22   A    
C21   H36   S    
C7    C8    S    
C40   H7    S    
C1    H16   S    
C29   H42   S    
C19   C20   A    
O21   P6    S    
C2    O21   S    
C7    H29   S    
C17   H39   S    
C39   H5    S    
C36   P5    S    
C31   C32   A    
C2    H1    S    
C36   C37   A    
Ba2   O14   S    
C6    H28   S    
O15   P7    S    
C35   H47   S    
C3    H17   S    
C34   C38   S    
C14   C15   S    
Ba2   O4    S    
Ba2   O9    S    
C18   H40   S    
C10   C24   A    
O3    P3    S    
Ba1   O23   S    
C4    H19   S    
C43   O26   S    
C41   C42   S    
Ba1   P2    S    
C27   C28   A    
Ba1   O13   S    
C9    C14   D    
C42   H12   S    
C41   H10   S    
C29   C30   A    
C42   H13   S    
N1    N2    D    
C22   P1    S    
C15   C16   S    
C10   H38   S    
C14   P8    S    
O6    P8    S    
C40   H6    S    
C18   C20   S    
C9    C13   S    
C19   C21   A    
C13   P4    S    
O17   P8    S    
C1    H22   S    
C7    H30   S    
C15   C17   S    
C1    C2    S    
O14   P7    D    
O2    P2    S    
O1    P1    D    
C38   C43   S    
Ba2   O13   S    
C6    H27   S    
O8    P7    S    
C25   C30   A    
C8    H32   S    
O10   P5    D    
Ba1   O1    S    
C5    H25   S    
C12   O3    S    
C3    O15   S    
O22   P2    D    
O9    P5    S    
Ba2   O8    S    
C6    H26   S    
C34   O7    S    
O11   P5    S    
C11   C13   D    
C43   O25   D    
C12   H44   S    
C34   H51   S    
C3    C4    S    
Ba2   O6    S    
C2    H15   S    
C31   C33   A    
C39   H4    S    
C3    H18   S    
C24   P6    S    
C12   C23   S    
C27   H43   S    
Ba2   P4    S    
C34   H50   S    
C32   P7    S    
C20   C24   A    
C40   H8    S    
C25   C26   A    
C5    O11   S    
Ba1   O18   S    
C39   O20   S    
C33   N2    S    
Ba1   O5    S    
C37   H45   S    
O23   P3    S    
Ba1   O8    S    
C8    H31   S    
