data_mof_unit_59135.cif
_audit_creation_date              2012-12-10T17:07:48-0500
_audit_creation_method            fapswitch 2.2
_symmetry_space_group_name_H-M    P1
_symmetry_Int_Tables_number       1
_space_group_crystal_system       triclinic
_cell_length_a                    10.741968
_cell_length_b                    10.711206
_cell_length_c                    10.053619
_cell_angle_alpha                 88.959193
_cell_angle_beta                  87.230677
_cell_angle_gamma                 90.924612
_cell_volume                      1155.05446338

loop_
_atom_site_label
_atom_site_type_symbol
_atom_type_description
_atom_site_fract_x
_atom_site_fract_y
_atom_site_fract_z
_atom_type_partial_charge
C1    C     C_R   0.505030 0.262791 0.500570 0.955349
C2    C     C_3   0.878107 0.492828 0.489062 -0.017748
C3    C     C_3   0.924914 0.620622 0.544211 -0.449380
C4    C     C_3   0.938349 0.469079 0.343669 0.373492
C5    C     C_2   0.531945 0.934653 0.389133 -0.170962
C6    C     C_2   0.492021 0.869043 0.497243 -0.328441
C7    C     C_2   0.525731 0.068982 0.387765 -0.097441
C8    C     C_2   0.523487 0.131711 0.501566 -0.301211
C9    C     C_2   0.492818 0.599604 0.925517 -0.043568
C10   C     C_2   0.473100 0.596467 0.074918 -0.054550
C11   C     C_R   0.256970 0.499211 0.503451 0.832598
C12   C     C_R   0.498767 0.737224 0.499026 0.913141
C13   C     C_R   0.741953 0.496256 0.496286 0.875046
C14   C     C_3   0.058792 0.397464 0.609903 0.258315
C15   C     C_3   0.918258 0.385934 0.584918 -0.435015
C16   C     C_3   0.068127 0.626169 0.547848 -0.384659
C17   C     C_3   0.080608 0.470094 0.361780 -0.423645
C18   C     C_3   0.119031 0.498097 0.508346 -0.056157
H1    H     H_    0.110239 0.701588 0.482983 0.150754
H2    H     H_    0.890845 0.700881 0.485761 0.165056
H3    H     H_    0.566151 0.889501 0.298852 0.177044
H4    H     H_    0.451944 0.910890 0.586505 0.157439
H5    H     H_    0.521003 0.115887 0.291428 0.207100
H6    H     H_    0.538368 0.087854 0.597437 0.162616
H7    H     H_    0.503580 0.690768 0.877394 0.106580
H8    H     H_    0.435976 0.678607 0.123066 0.146531
H9    H     H_    0.102629 0.306074 0.588856 0.112326
H10   H     H_    0.558159 0.436595 0.103512 0.223902
H11   H     H_    0.895235 0.292584 0.547904 0.216610
H12   H     H_    0.860697 0.385001 0.679244 0.224264
H13   H     H_    0.095102 0.651826 0.648983 0.239176
H14   H     H_    0.885354 0.632907 0.647450 0.235679
H15   H     H_    0.127270 0.537086 0.289266 0.200628
H16   H     H_    0.123206 0.380033 0.332928 0.246137
N1    N     N_2   0.501360 0.501330 0.852150 0.050002
N2    N     N_2   0.501390 0.501360 0.147810 -0.162476
O1    O     O_R   0.499980 0.319060 0.613040 -0.561341
O2    O     O_R   0.500020 0.319100 0.386900 -0.592998
O3    O     O_R   0.314770 0.499960 0.613070 -0.534749
O4    O     O_R   0.314820 0.500000 0.386930 -0.619909
O5    O     O_R   0.499980 0.680900 0.613100 -0.642343
O6    O     O_R   0.500020 0.680940 0.386960 -0.630932
O7    O     O_R   0.685180 0.500000 0.613070 -0.635900
O8    O     O_R   0.685230 0.500040 0.386930 -0.617863
Zn1   Zn    Zn3+2 0.499970 0.499970 0.650990 1.083127
Zn2   Zn    Zn3+2 0.500030 0.500030 0.349010 0.989210
S1    S     S_3+6 0.072972 0.426169 0.788627 0.069612
O9    O     O_2   0.181800 0.507956 0.819967 -0.194781
O10   O     O_2   0.958856 0.487802 0.847407 -0.322659
O11   O     O_3   0.087080 0.287299 0.866537 -0.458144
H17   H     H_    0.007821 0.241901 0.852711 0.353098
C19   C     C_R   0.904079 0.571820 0.237341 0.084562
C20   C     C_R   0.817838 0.547569 0.137980 0.059663
C21   C     C_R   0.794503 0.635696 0.038461 -0.135598
C22   C     C_R   0.852076 0.752706 0.036884 -0.090795
C23   C     C_R   0.934885 0.781332 0.134062 -0.092371
C24   C     C_R   0.961354 0.692409 0.231565 -0.219237
H18   H     H_    0.767642 0.460192 0.134391 0.184048
H19   H     H_    0.733339 0.612073 0.960468 0.132108
H20   H     H_    0.833440 0.820636 0.959650 0.136009
H21   H     H_    0.980844 0.872094 0.132621 0.149017
H22   H     H_    0.029949 0.719676 0.299099 0.139960
S2    S     S_3+6 0.421436 0.364757 0.910107 0.153387
O12   O     O_2   0.348429 0.308262 0.802452 -0.189396
O13   O     O_2   0.514334 0.270488 0.953184 -0.349687
O14   O     O_3   0.316691 0.390740 0.036473 -0.487164
H23   H     H_    0.289975 0.306698 0.070593 0.389295
S3    S     S_3+6 0.902102 0.311219 0.281356 -0.034377
O15   O     O_2   0.765724 0.279142 0.300758 -0.333749
O16   O     O_2   0.939237 0.306854 0.135363 -0.254297
O17   O     O_3   0.983036 0.199386 0.357450 -0.615650
H24   H     H_    0.957357 0.120283 0.316300 0.386309

loop_
_geom_bond_atom_site_label_1
_geom_bond_atom_site_label_2
_ccdc_geom_bond_type
C17   C18   S    
C2    C4    S    
C22   C23   A    
S2    O13   D    
C11   C18   S    
N2    Zn2   S    
C12   O5    A    
C23   H21   S    
C20   H18   S    
C24   H22   S    
C14   H9    S    
C1    C8    S    
C5    C7    S    
C9    C10   S    
C14   C18   S    
S1    O9    D    
C14   C15   S    
C1    O1    A    
O3    Zn1   S    
C10   H8    S    
N1    S2    S    
O14   H23   S    
S2    O14   S    
C9    H7    S    
C3    H2    S    
S1    O10   D    
C20   C21   A    
C23   C24   A    
C16   H13   S    
C11   O3    A    
C2    C15   S    
O7    Zn1   S    
C3    H14   S    
C17   H15   S    
C1    O2    A    
C4    C19   S    
S3    O17   S    
C7    H5    S    
C4    C17   S    
C16   C18   S    
C8    H6    S    
O8    Zn2   S    
C15   H11   S    
S1    O11   S    
C2    C3    S    
C21   H19   S    
C16   H1    S    
C6    C12   S    
C11   O4    A    
C9    N1    D    
O2    Zn2   S    
C7    C8    D    
C17   H16   S    
O4    Zn2   S    
O1    Zn1   S    
C19   C24   A    
N1    Zn1   S    
C13   O7    A    
O17   H24   S    
C19   C20   A    
H10   N2    S    
C15   H12   S    
S3    O16   D    
O6    Zn2   S    
C5    C6    D    
C2    C13   S    
O5    Zn1   S    
C21   C22   A    
C12   O6    A    
O11   H17   S    
C22   H20   S    
C14   S1    S    
C4    S3    S    
C13   O8    A    
C3    C16   S    
S2    O12   D    
S3    O15   D    
C10   N2    D    
C5    H3    S    
C6    H4    S    
