data_mof_unit_30851.cif
_audit_creation_date              2012-12-11T14:47:51-0500
_audit_creation_method            fapswitch 2.2
_symmetry_space_group_name_H-M    P1
_symmetry_Int_Tables_number       1
_space_group_crystal_system       triclinic
_cell_length_a                    11.52418
_cell_length_b                    11.508589
_cell_length_c                    19.594599
_cell_angle_alpha                 90.45258
_cell_angle_beta                  90.147134
_cell_angle_gamma                 59.957874
_cell_volume                      2249.57516844

loop_
_atom_site_label
_atom_site_type_symbol
_atom_type_description
_atom_site_fract_x
_atom_site_fract_y
_atom_site_fract_z
_atom_type_partial_charge
C1    C     C_R   0.640449 0.117298 0.599371 0.544496
C2    C     C_1   0.653030 0.149485 0.668738 0.005527
C3    C     C_R   0.539508 0.705221 0.293108 -0.149432
C4    C     C_R   0.612529 0.746022 0.598723 0.548679
C5    C     C_R   0.541772 0.706207 0.223667 -0.149146
C6    C     C_R   0.656527 0.685574 0.189448 -0.004799
C7    C     C_R   0.762103 0.687729 0.225438 0.016853
C8    C     C_R   0.762138 0.682630 0.297388 0.015019
C9    C     C_R   0.647476 0.694675 0.331046 -0.009604
C10   C     C_R   0.189574 0.272962 0.296641 -0.101773
C11   C     C_R   0.167945 0.286973 0.227756 -0.098877
C12   C     C_1   0.641320 0.704087 0.668091 0.005887
C13   C     C_R   0.144512 0.196000 0.191737 0.024385
C14   C     C_R   0.153300 0.083765 0.224897 -0.138867
C15   C     C_R   0.181051 0.066189 0.294452 -0.142917
C16   C     C_R   0.241133 0.145221 0.598312 0.550252
C17   C     C_R   0.197174 0.162297 0.330827 0.030152
C18   C     C_R   0.785350 0.080734 0.304001 -0.121464
C19   C     C_R   0.794813 0.096573 0.235410 -0.124409
C20   C     C_R   0.682466 0.190074 0.197552 0.015032
C21   C     C_R   0.558296 0.270287 0.230683 0.034456
C22   C     C_R   0.550853 0.253783 0.300646 -0.131339
C23   C     C_1   0.126336 0.199087 0.859158 0.006722
C24   C     C_R   0.662920 0.155925 0.336573 -0.002865
C25   C     C_R   0.081537 0.231408 0.928436 0.548760
C26   C     C_R   0.683816 0.604584 0.929371 0.544951
C27   C     C_R   0.708256 0.206936 0.930005 0.555792
C28   C     C_R   0.644690 0.113820 0.403062 0.548899
C29   C     C_R   0.084314 0.235160 0.124785 0.553425
C30   C     C_R   0.680600 0.617923 0.123646 0.561242
C31   C     C_R   0.709255 0.211888 0.127583 0.581176
C32   C     C_R   0.617273 0.738916 0.401874 0.567443
C33   C     C_R   0.246242 0.139860 0.400537 0.554737
C34   C     C_1   0.171657 0.170255 0.727738 -0.029135
C35   C     C_1   0.670250 0.646509 0.860008 0.007362
C36   C     C_1   0.654767 0.683855 0.728462 -0.029779
C37   C     C_1   0.663346 0.666735 0.799644 -0.029270
C38   C     C_2   0.433846 0.366299 0.194548 0.563906
C39   C     C_2   0.868343 0.697885 0.187410 0.618562
C40   C     C_2   0.880537 0.663149 0.337159 0.624832
C41   C     C_1   0.149946 0.182492 0.798892 -0.028658
C42   C     C_1   0.195589 0.160743 0.667492 0.005210
C43   C     C_1   0.678450 0.191670 0.860649 0.007332
C44   C     C_1   0.658574 0.167154 0.729050 -0.029109
C45   C     C_1   0.665621 0.181132 0.800277 -0.028826
Cr1   Cr    Cr6+3 0.404720 0.198220 0.499960 1.036626
Cr2   Cr    Cr6+3 0.698290 0.897110 0.500380 1.072132
Cr3   Cr    Cr6+3 0.396970 0.904720 0.499610 1.040003
Cr4   Cr    Cr6+3 0.926180 0.152240 0.028110 1.035474
Cr5   Cr    Cr6+3 0.921340 0.452070 0.027460 1.079875
Cr6   Cr    Cr6+3 0.626260 0.447120 0.028700 1.078731
H1    H     H_    0.449044 0.717773 0.316829 0.167007
H2    H     H_    0.260341 0.543210 0.197469 0.363294
H3    H     H_    0.911996 0.787124 0.111398 0.335433
H4    H     H_    0.017234 0.556871 0.409409 0.335542
H5    H     H_    0.892802 0.035433 0.212528 0.156691
H6    H     H_    0.454706 0.310872 0.326002 0.164111
H7    H     H_    0.456853 0.711411 0.196887 0.166374
H8    H     H_    0.204246 0.348205 0.322459 0.171538
H9    H     H_    0.163296 0.373223 0.203445 0.208249
H10   H     H_    0.135001 0.012225 0.197688 0.132038
H11   H     H_    0.190205 0.978387 0.319462 0.133368
H12   H     H_    0.872938 0.005730 0.330928 0.175690
O1    O     O_R   0.267740 0.231990 0.575440 -0.500955
O2    O     O_R   0.596140 0.579600 0.952720 -0.506230
O3    O     O_R   0.639070 0.321380 0.958660 -0.486148
O4    O     O_R   0.527280 0.186680 0.570530 -0.494700
O5    O     O_R   0.821240 0.124490 0.104360 -0.526120
O6    O     O_R   0.036900 0.167320 0.097830 -0.514988
O7    O     O_R   0.056190 0.349890 0.102870 -0.490155
O8    O     O_R   0.797670 0.565150 0.097930 -0.474238
O9    O     O_R   0.595880 0.584540 0.104260 -0.519659
O10   O     O_R   0.638830 0.325960 0.099140 -0.459420
O11   O     O_3   0.824590 0.350480 0.028090 -0.275256
O12   O     O_R   0.685970 0.784630 0.430010 -0.470920
O13   O     O_R   0.728090 0.003480 0.576380 -0.505447
O14   O     O_R   0.682970 0.789220 0.570490 -0.491730
O15   O     O_R   0.499290 0.771920 0.575530 -0.503440
O16   O     O_R   0.285330 0.030900 0.569730 -0.493383
O17   O     O_R   0.270980 0.227040 0.423900 -0.523872
O18   O     O_R   0.530280 0.182090 0.430050 -0.513073
O19   O     O_R   0.731330 0.998530 0.424830 -0.492211
O20   O     O_2   0.409784 0.339434 0.137619 -0.503653
O21   O     O_R   0.341235 0.485811 0.227018 -0.711716
O22   O     O_2   0.986541 0.626121 0.201833 -0.522680
O23   O     O_R   0.502530 0.766960 0.423990 -0.526358
O24   O     O_R   0.831833 0.788869 0.133686 -0.684557
O25   O     O_2   0.925557 0.738396 0.329293 -0.496985
O26   O     O_R   0.937794 0.560245 0.385159 -0.696251
O27   O     O_R   0.288330 0.026310 0.429250 -0.503179
O28   O     O_3   0.499990 0.000020 0.499980 -0.265686
O29   O     O_R   0.821500 0.119550 0.952820 -0.502152
O30   O     O_R   0.037130 0.162750 0.957360 -0.496903
O31   O     O_R   0.056440 0.344950 0.951330 -0.498334
O32   O     O_R   0.797900 0.560570 0.957460 -0.492596

loop_
_geom_bond_atom_site_label_1
_geom_bond_atom_site_label_2
_ccdc_geom_bond_type
C19   H5    S    
C25   O30   A    
Cr4   O5    S    
C38   O20   D    
C19   C20   A    
C34   C42   T    
Cr6   O11   S    
C39   O24   S    
C32   O12   A    
C30   O8    A    
C7    C8    A    
C5    H7    S    
H2    O21   S    
C18   C24   A    
Cr3   O16   S    
C13   C29   S    
C36   C37   S    
C35   C37   T    
Cr2   O13   S    
C18   C19   A    
Cr5   O11   S    
H3    O24   S    
Cr5   O32   S    
C31   O10   A    
C10   C17   A    
C1    C2    S    
Cr6   O2    S    
Cr2   O19   S    
Cr3   O15   S    
C9    C32   S    
C21   C38   S    
C2    C44   T    
C8    C9    A    
Cr3   O28   S    
C40   O26   S    
C12   C36   T    
C25   O31   A    
Cr4   O6    S    
C13   C14   A    
C26   O2    A    
C34   C41   S    
C17   C33   S    
C22   H6    S    
C29   O6    A    
C31   O5    A    
C28   O19   A    
Cr6   O10   S    
Cr5   O31   S    
Cr1   O28   S    
C14   H10   S    
Cr1   O1    S    
Cr6   O3    S    
Cr5   O8    S    
C4    O15   A    
C3    C9    A    
Cr1   O18   S    
C32   O23   A    
C39   O22   D    
C27   O29   A    
C43   C45   T    
C6    C30   S    
Cr3   O23   S    
C4    C12   S    
Cr6   O9    S    
Cr2   O14   S    
Cr4   O29   S    
C11   H9    S    
C16   C42   S    
C44   C45   S    
C29   O7    A    
C26   O32   A    
C15   C17   A    
C38   O21   S    
C28   O18   A    
C14   C15   A    
C1    O13   A    
Cr2   O28   S    
C24   C28   S    
C3    C5    A    
C30   O9    A    
C3    H1    S    
C33   O17   A    
C6    C7    A    
C16   O1    A    
C23   C41   T    
C16   O16   A    
C40   O25   D    
C10   H8    S    
Cr5   O7    S    
Cr2   O12   S    
C4    O14   A    
H4    O26   S    
C27   O3    A    
C33   O27   A    
Cr1   O17   S    
C11   C13   A    
C5    C6    A    
C1    O4    A    
C15   H11   S    
C22   C24   A    
C23   C25   S    
C18   H12   S    
C10   C11   A    
C27   C43   S    
C26   C35   S    
Cr1   O4    S    
C20   C21   A    
C7    C39   S    
Cr4   O11   S    
Cr3   O27   S    
C8    C40   S    
Cr4   O30   S    
C21   C22   A    
C20   C31   S    
