data_mof_unit_65918.cif
_audit_creation_date              2012-12-10T18:31:14-0500
_audit_creation_method            fapswitch 2.2
_symmetry_space_group_name_H-M    P1
_symmetry_Int_Tables_number       1
_space_group_crystal_system       triclinic
_cell_length_a                    13.691842
_cell_length_b                    15.03815
_cell_length_c                    15.093367
_cell_angle_alpha                 96.666975
_cell_angle_beta                  92.387668
_cell_angle_gamma                 97.903059
_cell_volume                      3052.14238249

loop_
_atom_site_label
_atom_site_type_symbol
_atom_type_description
_atom_site_fract_x
_atom_site_fract_y
_atom_site_fract_z
_atom_type_partial_charge
C1    C     C_R   0.510609 0.556365 0.663508 0.880591
C2    C     C_R   0.315913 0.428400 0.929274 0.095993
C3    C     C_R   0.445202 0.692699 0.019706 0.612396
C4    C     C_R   0.301036 0.363392 0.989176 0.628419
C5    C     C_R   0.361541 0.172901 0.643900 0.549019
C6    C     C_R   0.633736 0.826495 0.353113 0.550483
C7    C     C_R   0.379130 0.257264 0.614695 0.567148
C8    C     C_R   0.617697 0.742299 0.382724 0.544484
C9    C     C_R   0.490846 0.206824 0.510465 0.610531
C10   C     C_R   0.509581 0.793004 0.490406 0.601555
C11   C     C_R   0.468266 0.116980 0.530413 -0.249222
C12   C     C_R   0.483993 0.444148 0.336450 0.900142
C13   C     C_R   0.530068 0.882678 0.469359 -0.244413
C14   C     C_R   0.408444 0.102538 0.603707 -0.314785
C15   C     C_R   0.588003 0.896964 0.394718 -0.331058
C16   C     C_R   0.318638 0.514037 0.496268 0.871380
C17   C     C_R   0.681319 0.485689 0.502907 0.894782
C18   C     C_R   0.504987 0.042356 0.482960 0.064239
C19   C     C_R   0.492907 0.957221 0.516780 0.069299
C20   C     C_R   0.446535 0.950336 0.597997 -0.232233
C21   C     C_R   0.550293 0.049309 0.401345 -0.225237
C22   C     C_R   0.400212 0.019572 0.637774 0.746748
C23   C     C_R   0.426461 0.568103 0.899017 -0.104069
C24   C     C_R   0.595430 0.979862 0.360549 0.753116
C25   C     C_1   0.781139 0.474426 0.500131 -0.129815
C26   C     C_1   0.217970 0.522134 0.489583 -0.150400
C27   C     C_2   0.967454 0.457878 0.491374 0.135215
C28   C     C_2   0.029638 0.531788 0.476552 0.129324
C29   C     C_1   0.132690 0.528715 0.482895 -0.013155
C30   C     C_1   0.865476 0.464564 0.496508 -0.003521
C31   C     C_R   0.497827 0.591556 0.756862 -0.187128
C32   C     C_R   0.450424 0.415021 0.242746 -0.178656
C33   C     C_R   0.499861 0.718869 0.872066 -0.074078
C34   C     C_R   0.401068 0.467270 0.104053 -0.097842
C35   C     C_R   0.342224 0.313344 0.132524 -0.086147
C36   C     C_R   0.518238 0.684830 0.785453 -0.261177
C37   C     C_R   0.390474 0.331678 0.217321 -0.281139
C38   C     C_R   0.455368 0.533234 0.815351 0.605650
C39   C     C_R   0.462368 0.478544 0.182062 0.617946
C40   C     C_3   0.996354 0.620885 0.459811 -0.400526
C41   C     C_3   0.989678 0.680692 0.547587 -0.765725
C42   C     C_3   0.001105 0.369223 0.509275 -0.397707
C43   C     C_3   0.031092 0.370586 0.607994 -0.779184
C44   C     C_3   0.388741 0.668390 0.173363 -0.318730
C45   C     C_R   0.456966 0.660601 0.930335 -0.078031
C46   C     C_3   0.278570 0.642105 0.184554 -0.897450
C47   C     C_3   0.251051 0.414305 0.843190 -0.217751
C48   C     C_3   0.143101 0.419515 0.862407 -0.861690
C49   C     C_R   0.347676 0.380668 0.075005 -0.090836
C50   C     C_R   0.380132 0.510723 0.957237 -0.067627
C51   C     C_R   0.400612 0.536926 0.049200 -0.034151
C52   C     C_R   0.417360 0.631282 0.080990 0.133780
F1    F     F_    0.299692 0.160805 0.710915 -0.538243
F2    F     F_    0.563831 0.232749 0.457087 -0.640792
F3    F     F_    0.661052 0.673494 0.343049 -0.551732
F4    F     F_    0.333488 0.325652 0.651731 -0.605804
F5    F     F_    0.692698 0.838216 0.283995 -0.522886
F6    F     F_    0.465008 0.782948 0.047622 -0.635112
F7    F     F_    0.244460 0.282314 0.962469 -0.632261
F8    F     F_    0.539345 0.547157 0.195597 -0.613988
F9    F     F_    0.448408 0.442170 0.793759 -0.626156
F10   F     F_    0.351725 0.006208 0.712899 -0.572229
F11   F     F_    0.642259 0.993115 0.284552 -0.564631
F12   F     F_    0.438683 0.766690 0.545594 -0.649639
H1    H     H_    0.446425 0.892867 0.634202 0.231789
H2    H     H_    0.049883 0.657358 0.418345 0.224211
H3    H     H_    0.923826 0.609681 0.421352 0.235912
H4    H     H_    0.094034 0.424853 0.629028 0.262485
H5    H     H_    0.967867 0.382090 0.649561 0.257119
H6    H     H_    0.054124 0.304656 0.619372 0.277503
H7    H     H_    0.940183 0.312472 0.489611 0.232290
H8    H     H_    0.063823 0.354706 0.468142 0.215563
H9    H     H_    0.234301 0.665475 0.130749 0.282664
H10   H     H_    0.259758 0.567670 0.182538 0.258057
H11   H     H_    0.258868 0.674296 0.250127 0.267007
H12   H     H_    0.549850 0.107048 0.365508 0.234646
H13   H     H_    0.430923 0.646263 0.228559 0.252337
H14   H     H_    0.404476 0.743398 0.184001 0.262018
H15   H     H_    0.098143 0.412976 0.798518 0.257579
H16   H     H_    0.112809 0.364250 0.900571 0.311735
H17   H     H_    0.136390 0.485717 0.901058 0.253954
H18   H     H_    0.272301 0.466700 0.798974 0.214851
H19   H     H_    0.257208 0.347371 0.805884 0.317599
H20   H     H_    0.379759 0.281338 0.263163 0.200059
H21   H     H_    0.549963 0.731508 0.741354 0.206244
H22   H     H_    0.520491 0.790517 0.893553 0.223880
H23   H     H_    0.298995 0.247526 0.113050 0.220579
H24   H     H_    0.934812 0.646845 0.589534 0.252883
H25   H     H_    0.062853 0.695351 0.584990 0.270797
H26   H     H_    0.966089 0.745638 0.533482 0.264064
N1    N     N_R   0.445040 0.272490 0.551770 -0.225790
N2    N     N_R   0.554960 0.727510 0.448230 -0.235518
O1    O     O_R   0.527700 0.614770 0.606110 -0.593408
O2    O     O_R   0.472300 0.385230 0.393890 -0.593693
O3    O     O_R   0.492440 0.468680 0.639380 -0.509582
O4    O     O_R   0.507560 0.531320 0.360620 -0.537147
O5    O     O_R   0.379820 0.583550 0.480950 -0.564652
O6    O     O_R   0.620180 0.416450 0.519050 -0.553057
O7    O     O_R   0.344560 0.437460 0.514220 -0.578873
O8    O     O_R   0.655440 0.562540 0.485780 -0.572788
Zn1   Zn    Zn3+2 0.523550 0.597550 0.477790 1.062308
Zn2   Zn    Zn3+2 0.476450 0.402450 0.522210 1.079088

loop_
_geom_bond_atom_site_label_1
_geom_bond_atom_site_label_2
_ccdc_geom_bond_type
C41   H25   S    
C11   C18   A    
C23   C45   A    
C18   C21   A    
C33   C45   A    
C19   C20   A    
C9    N1    A    
C21   H12   S    
C34   C51   A    
C48   H15   S    
C5    F1    S    
C28   C29   S    
C35   C37   A    
C11   C14   A    
C16   O5    A    
C47   H18   S    
C28   C40   S    
C1    C31   S    
C33   C36   A    
C48   H17   S    
C18   C19   A    
C32   C39   A    
O8    Zn1   S    
C2    C50   A    
C6    C15   A    
C35   H23   S    
C43   H4    S    
C40   H3    S    
C35   C49   A    
C37   H20   S    
C8    N2    A    
C47   H19   S    
C17   O6    A    
O3    Zn2   S    
C38   F9    S    
C44   C52   S    
C41   H26   S    
C10   N2    A    
C43   H5    S    
C40   H2    S    
O4    Zn1   S    
C12   C32   S    
C27   C30   S    
C6    F5    S    
C12   O2    A    
C7    F4    S    
C8    F3    S    
C46   H11   S    
C44   C46   S    
C16   C26   S    
C13   C19   A    
C51   C52   A    
C20   H1    S    
O1    Zn1   S    
C5    C7    A    
C23   C50   A    
C6    C8    A    
O6    Zn2   S    
C3    C45   A    
C34   C39   A    
C2    C4    A    
C33   H22   S    
C22   F10   S    
C47   C48   S    
C1    O3    A    
C7    N1    A    
C42   H8    S    
C50   C51   A    
C15   C24   A    
C32   C37   A    
C9    C11   A    
C5    C14   A    
N2    Zn1   S    
C40   C41   S    
C20   C22   A    
C24   F11   S    
C13   C15   A    
C2    C47   S    
C42   C43   S    
N1    Zn2   S    
C46   H10   S    
C25   C30   T    
C41   H24   S    
C44   H13   S    
C34   C49   A    
C10   F12   S    
C10   C13   A    
C3    C52   A    
C16   O7    A    
C36   H21   S    
C43   H6    S    
C23   C38   A    
C31   C38   A    
C4    C49   A    
C17   C25   S    
C48   H16   S    
C44   H14   S    
C27   C42   S    
C14   C22   A    
C39   F8    S    
C4    F7    S    
C42   H7    S    
C17   O8    A    
C3    F6    S    
O7    Zn2   S    
O2    Zn2   S    
C26   C29   T    
C1    O1    A    
C21   C24   A    
C27   C28   D    
C31   C36   A    
C12   O4    A    
C9    F2    S    
C46   H9    S    
O5    Zn1   S    
