data_mof_unit_56451.cif
_audit_creation_date              2012-12-10T17:32:18-0500
_audit_creation_method            fapswitch 2.2
_symmetry_space_group_name_H-M    P1
_symmetry_Int_Tables_number       1
_space_group_crystal_system       triclinic
_cell_length_a                    12.420888
_cell_length_b                    13.221227
_cell_length_c                    15.049166
_cell_angle_alpha                 75.323159
_cell_angle_beta                  101.432858
_cell_angle_gamma                 117.084901
_cell_volume                      2118.6676664

loop_
_atom_site_label
_atom_site_type_symbol
_atom_type_description
_atom_site_fract_x
_atom_site_fract_y
_atom_site_fract_z
_atom_type_partial_charge
C1    C     C_R   0.855235 0.286694 0.507157 0.801515
C2    C     C_R   0.914710 0.527082 0.072981 0.108467
C3    C     C_R   0.177396 0.458012 0.084862 -0.214386
C4    C     C_R   0.178125 0.458859 0.992190 -0.211801
C5    C     C_R   0.091694 0.482328 0.925992 0.107894
C6    C     C_R   0.003815 0.505494 0.952880 0.062828
C7    C     C_R   0.916584 0.529378 0.886736 0.104164
C8    C     C_R   0.829474 0.552088 0.914038 -0.211594
C9    C     C_R   0.828502 0.550884 0.006746 -0.213358
C10   C     C_R   0.091220 0.482466 0.833358 -0.247892
C11   C     C_R   0.004074 0.505429 0.767518 -0.063975
C12   C     C_R   0.002359 0.503121 0.670740 0.844005
C13   C     C_R   0.917593 0.529586 0.794399 -0.229699
C14   C     C_R   0.279424 0.029070 0.379151 -0.190042
C15   C     C_R   0.228458 0.836496 0.468655 -0.045998
C16   C     C_R   0.813099 0.081553 0.566949 -0.175309
C17   C     C_R   0.732941 0.965662 0.585954 -0.143608
C18   C     C_R   0.610484 0.929928 0.554668 -0.182147
C19   C     C_R   0.565954 0.009774 0.499825 0.081977
C20   C     C_R   0.650788 0.125527 0.471605 0.079787
C21   C     C_R   0.440333 0.978318 0.471015 0.071027
C22   C     C_R   0.402979 0.059217 0.408323 0.165637
C23   C     C_R   0.144967 0.713740 0.486636 0.788114
C24   C     C_R   0.489459 0.168097 0.373275 -0.237496
C25   C     C_R   0.611554 0.200052 0.402989 -0.202217
C26   C     C_R   0.350296 0.868774 0.502820 -0.252278
C27   C     C_R   0.192498 0.917752 0.408573 -0.195996
C28   C     C_R   0.772930 0.163033 0.512107 -0.100034
C29   C     C_R   0.315928 0.294698 0.619578 -0.294085
C30   C     C_R   0.766418 0.655853 0.381107 0.074744
C31   C     C_R   0.674074 0.692301 0.356702 -0.254637
C32   C     C_R   0.567313 0.631707 0.400046 -0.183289
C33   C     C_R   0.550059 0.532086 0.468545 -0.015191
C34   C     C_R   0.000262 0.500685 0.328820 0.799002
C35   C     C_R   0.647441 0.496209 0.493017 0.227799
C36   C     C_R   0.439697 0.467739 0.514145 -0.036932
C37   C     C_R   0.420355 0.360422 0.572735 0.150650
C38   C     C_R   0.507956 0.320742 0.589852 -0.297466
C39   C     C_R   0.623524 0.391184 0.562420 -0.045049
C40   C     C_R   0.346091 0.503865 0.504913 0.016630
C41   C     C_R   0.230152 0.336327 0.609689 0.073943
C42   C     C_R   0.914198 0.525470 0.165771 -0.252705
C43   C     C_R   0.000826 0.501720 0.231706 -0.071021
C44   C     C_R   0.088539 0.479398 0.204643 -0.244868
C45   C     C_R   0.090146 0.480509 0.112195 0.105576
C46   C     C_R   0.002939 0.504438 0.046042 0.064687
Cu1   Cu    Cu3+1 0.098270 0.475420 0.521130 0.935226
Cu2   Cu    Cu3+1 0.901730 0.524580 0.478870 0.934120
H1    H     H_    0.846370 0.542861 0.186432 0.155436
H2    H     H_    0.462706 0.228881 0.322243 0.143900
H3    H     H_    0.250544 0.090501 0.331199 0.133688
H4    H     H_    0.372456 0.805490 0.553369 0.147917
H5    H     H_    0.906225 0.107788 0.597412 0.147700
H6    H     H_    0.553914 0.838757 0.572986 0.126932
H7    H     H_    0.765196 0.903410 0.627842 0.139868
H8    H     H_    0.674639 0.283021 0.369374 0.173851
H9    H     H_    0.148199 0.285728 0.644380 0.123392
H10   H     H_    0.489548 0.237753 0.636321 0.154922
H11   H     H_    0.301601 0.212341 0.664765 0.136841
H12   H     H_    0.155737 0.461085 0.255375 0.159174
H13   H     H_    0.349897 0.582684 0.459656 0.120592
H14   H     H_    0.849158 0.704022 0.347173 0.120652
H15   H     H_    0.498380 0.663348 0.377246 0.135037
H16   H     H_    0.685296 0.768145 0.303735 0.144272
H17   H     H_    0.244827 0.439584 0.135142 0.142063
H18   H     H_    0.246048 0.440997 0.972307 0.142132
H19   H     H_    0.158368 0.464067 0.812802 0.156721
H20   H     H_    0.850314 0.547781 0.743690 0.153925
H21   H     H_    0.762022 0.570473 0.863755 0.142479
H22   H     H_    0.760373 0.568437 0.026662 0.141886
H23   H     H_    0.098404 0.893927 0.381362 0.146451
N1    N     N_R   0.246280 0.438190 0.553160 -0.183263
N2    N     N_R   0.754320 0.561190 0.447410 -0.207057
O1    O     O_R   0.972510 0.318130 0.526570 -0.584943
O2    O     O_R   0.806530 0.359650 0.490890 -0.588576
O3    O     O_R   0.082980 0.479210 0.647590 -0.587109
O4    O     O_R   0.917000 0.520730 0.611900 -0.587360
O5    O     O_R   0.193470 0.640350 0.509110 -0.589594
O6    O     O_R   0.027490 0.681870 0.473430 -0.591653
O7    O     O_R   0.083000 0.479270 0.388100 -0.583736
O8    O     O_R   0.917020 0.520790 0.352410 -0.599646
C47   C     C_1   0.704612 0.349482 0.624741 0.350568
N3    N     N_1   0.761339 0.308000 0.677895 -0.322181

loop_
_geom_bond_atom_site_label_1
_geom_bond_atom_site_label_2
_ccdc_geom_bond_type
C16   C28   A    
C21   C26   A    
C19   C20   A    
C25   H8    S    
C7    C8    A    
C10   H19   S    
C2    C46   A    
C8    H21   S    
C1    O1    A    
Cu2   O6    S    
C36   C37   A    
C19   C21   A    
C44   H12   S    
Cu1   O3    S    
C5    C6    A    
C20   C25   A    
C33   C36   A    
Cu2   O8    S    
C18   C19   A    
C16   H5    S    
C34   O7    A    
C38   H10   S    
Cu1   Cu2   S    
C8    C9    A    
C1    C28   S    
C34   O8    A    
C14   C27   A    
C40   N1    A    
C17   H7    S    
C39   C47   S    
C15   C23   S    
C21   C22   A    
Cu2   O2    S    
C3    H17   S    
Cu1   O7    S    
Cu2   N2    S    
C24   H2    S    
C38   C39   A    
C1    O2    A    
C29   H11   S    
C36   C40   A    
C24   C25   A    
Cu1   O1    S    
C30   N2    A    
C16   C17   A    
C15   C26   A    
C20   C28   A    
C45   C46   A    
C3    C45   A    
C40   H13   S    
Cu2   O4    S    
C35   C39   A    
C43   C44   A    
C37   C38   A    
C26   H4    S    
C15   C27   A    
C14   H3    S    
C12   O4    A    
C17   C18   A    
C9    H22   S    
C41   N1    A    
C12   O3    A    
C22   C24   A    
C42   C43   A    
C3    C4    A    
C27   H23   S    
C44   C45   A    
C35   N2    A    
C6    C46   A    
C29   C41   A    
C31   H16   S    
C31   C32   A    
C34   C43   S    
C32   H15   S    
C4    C5    A    
C11   C12   S    
C6    C7    A    
C32   C33   A    
C14   C22   A    
C30   H14   S    
C41   H9    S    
C5    C10   A    
C4    H18   S    
C11   C13   A    
C30   C31   A    
C2    C42   A    
C33   C35   A    
C23   O5    A    
Cu1   N1    S    
C10   C11   A    
C18   H6    S    
C42   H1    S    
C7    C13   A    
C47   N3    T    
C29   C37   A    
Cu1   O5    S    
C23   O6    A    
C2    C9    A    
C13   H20   S    
