data_mof_unit_28751.cif
_audit_creation_date              2012-12-10T18:29:41-0500
_audit_creation_method            fapswitch 2.2
_symmetry_space_group_name_H-M    P1
_symmetry_Int_Tables_number       1
_space_group_crystal_system       triclinic
_cell_length_a                    11.525301
_cell_length_b                    15.131542
_cell_length_c                    15.060988
_cell_angle_alpha                 81.785794
_cell_angle_beta                  91.98576
_cell_angle_gamma                 103.616303
_cell_volume                      2526.55699166

loop_
_atom_site_label
_atom_site_type_symbol
_atom_type_description
_atom_site_fract_x
_atom_site_fract_y
_atom_site_fract_z
_atom_type_partial_charge
C1    C     C_R   0.480146 0.442113 0.663053 0.907634
C2    C     C_R   0.759321 0.618077 0.998791 -0.092772
C3    C     C_R   0.682981 0.845930 0.637213 0.401080
C4    C     C_R   0.301327 0.157579 0.369129 0.301808
C5    C     C_R   0.641920 0.753843 0.622907 0.435117
C6    C     C_R   0.352334 0.249903 0.381060 0.520061
C7    C     C_R   0.517614 0.797243 0.502343 -0.052040
C8    C     C_R   0.480332 0.201615 0.495673 -0.066879
C9    C     C_R   0.542573 0.887751 0.524734 -0.123102
C10   C     C_R   0.452814 0.112389 0.470806 -0.117767
C11   C     C_R   0.642228 0.914366 0.580431 -0.051339
C12   C     C_R   0.525400 0.557599 0.337230 0.898960
C13   C     C_R   0.349403 0.087212 0.417869 -0.013804
C14   C     C_R   0.474655 0.953393 0.492232 0.149018
C15   C     C_R   0.521031 0.046791 0.500782 0.133234
C16   C     C_R   0.717687 0.500764 0.500503 0.908111
C17   C     C_R   0.282302 0.499187 0.499600 0.954283
C18   C     C_R   0.637775 0.073251 0.533922 -0.254686
C19   C     C_R   0.357945 0.927495 0.458562 -0.242012
C20   C     C_R   0.696956 0.008903 0.577233 0.005691
C21   C     C_R   0.296643 0.992353 0.418605 0.000800
C22   C     C_1   0.838844 0.502125 0.500829 -0.086299
C23   C     C_R   0.473348 0.335266 0.942535 -0.045209
C24   C     C_1   0.161110 0.497738 0.499433 -0.105349
C25   C     C_1   0.940880 0.501044 0.500514 0.045397
C26   C     C_1   0.059054 0.498758 0.499836 0.040548
C27   C     C_R   0.468793 0.405350 0.758905 -0.177024
C28   C     C_R   0.574855 0.588916 0.245574 -0.198887
C29   C     C_R   0.387437 0.288664 0.884839 0.445891
C30   C     C_R   0.722633 0.683472 0.136311 0.429952
C31   C     C_R   0.387009 0.322603 0.791940 -0.130598
C32   C     C_R   0.668654 0.667840 0.222598 -0.135508
C33   C     C_R   0.544753 0.454486 0.817606 -0.237877
C34   C     C_R   0.699013 0.612031 0.081264 -0.034859
C35   C     C_R   0.542127 0.526416 0.184769 -0.203722
C36   C     C_R   0.550588 0.420523 0.908472 0.018521
C37   C     C_R   0.611430 0.530811 0.109554 0.005930
C38   C     C_2   0.436005 0.204381 0.072155 1.102668
C39   C     C_2   0.869921 0.689059 0.972898 1.125559
C40   C     C_2   0.723546 0.725982 0.291272 0.936433
C41   C     C_2   0.297026 0.274199 0.731262 0.931318
C42   C     C_2   0.820744 0.043918 0.608577 1.034032
C43   C     C_2   0.172748 0.956289 0.388599 1.030682
C44   C     C_2   0.534348 0.216634 0.584640 0.982028
C45   C     C_R   0.620809 0.475738 0.968180 -0.068448
C46   C     C_2   0.460124 0.780264 0.414752 0.978678
C47   C     C_R   0.587671 0.457214 0.058597 -0.074643
C48   C     C_R   0.531697 0.365390 0.094253 0.347800
C49   C     C_R   0.718528 0.551050 0.941504 0.364368
C50   C     C_R   0.478270 0.303081 0.035560 -0.096405
H1    H     H_    0.685045 0.144603 0.524714 0.186909
H2    H     H_    0.787975 0.814715 0.138793 0.378846
H3    H     H_    0.608406 0.371638 0.210972 0.349608
H4    H     H_    0.775848 0.492007 0.851240 0.340615
H5    H     H_    0.937033 0.143990 0.662627 0.356556
H6    H     H_    0.060427 0.862531 0.324214 0.366493
H7    H     H_    0.670254 0.282043 0.656464 0.346403
H8    H     H_    0.452964 0.825559 0.282460 0.368615
H9    H     H_    0.294299 0.306531 0.270316 0.352915
H10   H     H_    0.689014 0.639158 0.645095 0.385462
H11   H     H_    0.779247 0.815669 0.742420 0.421493
H12   H     H_    0.310850 0.856130 0.466373 0.177352
H13   H     H_    0.160567 0.182002 0.305006 0.359164
H14   H     H_    0.465166 0.469703 0.199625 0.223891
H15   H     H_    0.597123 0.521706 0.791574 0.238669
H16   H     H_    0.353763 0.109872 0.172350 0.368442
H17   H     H_    0.037423 0.750259 0.006709 0.364309
H18   H     H_    0.755381 0.849034 0.335541 0.365514
H19   H     H_    0.174700 0.283568 0.633374 0.347611
H20   H     H_    0.223896 0.214148 0.887146 0.353885
N1    N     N_R   0.566020 0.731700 0.552730 -0.196017
N2    N     N_R   0.433980 0.268300 0.447270 -0.162608
O1    O     O_R   0.466720 0.383110 0.605620 -0.597928
O2    O     O_R   0.376178 0.178896 0.154304 -0.734847
O3    O     O_2   0.877473 0.735620 0.899037 -0.551811
O4    O     O_R   0.966814 0.700383 0.032084 -0.752549
O5    O     O_2   0.780049 0.694402 0.352971 -0.612359
O6    O     O_R   0.713327 0.816826 0.284700 -0.765459
O7    O     O_2   0.277201 0.190694 0.735236 -0.530103
O8    O     O_R   0.233234 0.324061 0.670910 -0.817741
O9    O     O_3   0.298308 0.215971 0.922345 -0.715323
O10   O     O_3   0.800418 0.765948 0.105683 -0.735306
O11   O     O_3   0.538287 0.332603 0.184413 -0.741596
O12   O     O_R   0.533280 0.616890 0.394380 -0.592987
O13   O     O_3   0.784999 0.555211 0.865655 -0.731170
O14   O     O_2   0.898450 0.003270 0.598799 -0.542384
O15   O     O_R   0.849688 0.126214 0.645302 -0.785783
O16   O     O_2   0.091310 0.987670 0.410878 -0.556354
O17   O     O_R   0.148331 0.882441 0.339242 -0.771838
O18   O     O_2   0.486881 0.168575 0.651870 -0.562052
O19   O     O_R   0.642557 0.280012 0.591993 -0.780891
O20   O     O_2   0.371117 0.718868 0.410213 -0.595508
O21   O     O_R   0.501159 0.841777 0.337895 -0.756201
O22   O     O_3   0.316532 0.322468 0.331149 -0.729014
O23   O     O_R   0.509090 0.531900 0.639510 -0.618750
O24   O     O_3   0.682921 0.688100 0.679427 -0.749313
O25   O     O_3   0.757440 0.870277 0.708288 -0.696716
O26   O     O_3   0.209455 0.135814 0.308943 -0.720032
O27   O     O_R   0.490910 0.468100 0.360490 -0.557756
O28   O     O_R   0.644370 0.425610 0.483050 -0.570628
O29   O     O_R   0.355630 0.574390 0.516950 -0.565044
O30   O     O_R   0.686740 0.574390 0.516930 -0.619564
O31   O     O_R   0.313260 0.425610 0.483070 -0.567441
O32   O     O_2   0.456021 0.145370 0.031141 -0.553473
Zn1   Zn    Zn3+2 0.471710 0.400660 0.477370 1.041784
Zn2   Zn    Zn3+2 0.528290 0.599340 0.522630 1.015639

loop_
_geom_bond_atom_site_label_1
_geom_bond_atom_site_label_2
_ccdc_geom_bond_type
C15   C18   A    
C4    O26   S    
C34   C37   A    
C41   O8    S    
C33   H15   S    
C27   C33   A    
C6    N2    A    
O28   Zn1   S    
C43   O17   S    
C12   C28   S    
C43   O16   D    
C23   C29   A    
C19   C21   A    
H8    O21   S    
C24   C26   T    
H13   O26   S    
C10   C15   A    
C7    N1    A    
O23   Zn2   S    
C46   O20   D    
C19   H12   S    
H16   O2    S    
C33   C36   A    
C12   O12   A    
C4    C13   A    
H20   O9    S    
C17   O29   A    
C12   O27   A    
C38   O32   D    
C21   C43   S    
C2    C39   S    
C28   C35   A    
C6    O22   S    
C22   C25   T    
O12   Zn2   S    
C35   H14   S    
C42   O14   D    
H9    O22   S    
C39   O3    D    
C37   C47   A    
C31   C41   S    
C2    C34   A    
C48   C50   A    
H17   O4    S    
C18   H1    S    
C45   C47   A    
H18   O6    S    
O27   Zn1   S    
C11   C20   A    
C8    N2    A    
C17   C24   S    
C30   C34   A    
C27   C31   A    
C7    C46   S    
C49   O13   S    
C28   C32   A    
C4    C6    A    
C16   O28   A    
C23   C50   A    
C25   C26   S    
C30   O10   S    
C9    C14   A    
C29   O9    S    
C2    C49   A    
C3    O25   S    
O1    Zn1   S    
C47   C48   A    
C45   C49   A    
C1    O23   A    
C13   C21   A    
C36   C45   A    
O31   Zn1   S    
C39   O4    S    
H2    O10   S    
C9    C11   A    
C44   O19   S    
H10   O24   S    
C16   O30   A    
H6    O17   S    
C40   O6    S    
C5    O24   S    
C44   O18   D    
C38   O2    S    
O29   Zn2   S    
C7    C9    A    
C16   C22   S    
H7    O19   S    
C35   C37   A    
C14   C15   A    
C14   C19   A    
C8    C10   A    
H11   O25   S    
C8    C44   S    
C3    C5    A    
C10   C13   A    
C41   O7    D    
H4    O13   S    
C20   C42   S    
C38   C50   S    
C48   O11   S    
H3    O11   S    
C1    O1    A    
C17   O31   A    
C5    N1    A    
C30   C32   A    
C46   O21   S    
O30   Zn2   S    
C18   C20   A    
C32   C40   S    
H5    O15   S    
C3    C11   A    
N2    Zn1   S    
C29   C31   A    
C23   C36   A    
N1    Zn2   S    
C1    C27   S    
C40   O5    D    
H19   O8    S    
C42   O15   S    
