data_mof_unit_43105.cif
_audit_creation_date              2012-12-10T17:15:11-0500
_audit_creation_method            fapswitch 2.2
_symmetry_space_group_name_H-M    P1
_symmetry_Int_Tables_number       1
_space_group_crystal_system       triclinic
_cell_length_a                    15.867821
_cell_length_b                    12.993308
_cell_length_c                    11.711328
_cell_angle_alpha                 100.054824
_cell_angle_beta                  94.206045
_cell_angle_gamma                 90.508172
_cell_volume                      2370.52257024

loop_
_atom_site_label
_atom_site_type_symbol
_atom_type_description
_atom_site_fract_x
_atom_site_fract_y
_atom_site_fract_z
_atom_type_partial_charge
C1    C     C_R   0.498789 0.299094 0.478439 0.805318
C2    C     C_R   0.500043 0.700893 0.521387 0.803351
C3    C     C_R   0.518010 0.015664 0.348854 -0.217322
C4    C     C_R   0.475008 0.983944 0.648656 -0.218848
C5    C     C_R   0.514371 0.123708 0.358840 -0.201074
C6    C     C_R   0.478481 0.875924 0.638585 -0.209278
C7    C     C_R   0.485789 0.138850 0.562071 -0.265804
C8    C     C_R   0.510178 0.861001 0.436603 -0.264861
C9    C     C_R   0.488759 0.030873 0.552643 0.177680
C10   C     C_R   0.505748 0.968857 0.445454 0.176088
C11   C     C_R   0.421464 0.398811 0.020078 0.127241
C12   C     C_R   0.583473 0.594868 0.979279 0.124733
C13   C     C_R   0.427529 0.410747 0.143288 0.417007
C14   C     C_R   0.573973 0.587275 0.856519 0.420273
C15   C     C_R   0.535308 0.540867 0.157790 -0.048441
C16   C     C_R   0.465889 0.457591 0.842039 -0.046768
C17   C     C_R   0.530139 0.534388 0.034770 -0.080942
C18   C     C_R   0.471504 0.463468 0.965018 -0.077324
C19   C     C_R   0.339821 0.499909 0.499860 0.833049
C20   C     C_R   0.660170 0.500292 0.500127 0.831113
C21   C     C_3   0.972964 0.411330 0.531357 -0.209140
C22   C     C_3   0.026914 0.590083 0.466998 -0.209704
C23   C     C_3   0.023067 0.416620 0.422834 -0.246572
C24   C     C_3   0.976794 0.584789 0.575504 -0.245530
C25   C     C_1   0.250175 0.500092 0.499407 -0.189491
C26   C     C_1   0.749791 0.500625 0.500337 -0.187123
C27   C     C_3   0.033385 0.495499 0.603643 0.334783
C28   C     C_3   0.966432 0.505921 0.394717 0.335686
C29   C     C_3   0.083000 0.500611 0.497763 0.087747
C30   C     C_3   0.916879 0.500787 0.500649 0.086975
C31   C     C_1   0.174640 0.500299 0.498601 -0.053861
C32   C     C_1   0.825288 0.500807 0.500483 -0.051547
C33   C     C_R   0.496979 0.814246 0.533064 -0.050557
C34   C     C_R   0.499174 0.185620 0.465776 -0.048183
Cu1   Cu    Cu3+1 0.506200 0.507730 0.615930 0.952733
Cu2   Cu    Cu3+1 0.493800 0.492270 0.384070 0.951331
H1    H     H_    0.042600 0.349269 0.358919 0.143236
H2    H     H_    0.957298 0.652180 0.639391 0.144526
H3    H     H_    0.950306 0.339245 0.559316 0.143047
H4    H     H_    0.049585 0.662161 0.439037 0.142786
H5    H     H_    0.524033 0.813618 0.354586 0.145162
H6    H     H_    0.473004 0.186386 0.644369 0.145606
H7    H     H_    0.465522 0.840627 0.712708 0.155793
H8    H     H_    0.524778 0.158842 0.283562 0.151096
H9    H     H_    0.530706 0.968897 0.266073 0.132485
H10   H     H_    0.461091 0.030541 0.730962 0.136138
H11   H     H_    0.422218 0.403476 0.786311 0.156144
H12   H     H_    0.579994 0.593713 0.213354 0.154991
N1    N     N_R   0.515540 0.519350 0.790140 -0.214987
N2    N     N_R   0.484460 0.480650 0.209860 -0.213019
O1    O     O_R   0.504400 0.354460 0.582000 -0.592422
O2    O     O_R   0.495600 0.645540 0.418000 -0.594071
O3    O     O_R   0.493920 0.341410 0.386200 -0.573351
O4    O     O_R   0.506080 0.658590 0.613800 -0.556945
O5    O     O_R   0.384320 0.506520 0.597880 -0.585216
O6    O     O_R   0.615680 0.493480 0.402120 -0.584143
O7    O     O_R   0.373840 0.493460 0.402080 -0.548449
O8    O     O_R   0.626160 0.506540 0.597920 -0.564649
N3    N     N_2   0.926497 0.511342 0.280849 -0.425617
H13   H     H_    0.880308 0.454257 0.253497 0.248693
C35   C     C_3   0.984115 0.520554 0.192967 -0.714044
H14   H     H_    0.947555 0.529482 0.110843 0.227699
H15   H     H_    0.022861 0.449427 0.176281 0.220527
H16   H     H_    0.026238 0.590506 0.220920 0.235822
N4    N     N_2   0.073033 0.490198 0.717687 -0.423741
H17   H     H_    0.119187 0.547312 0.745103 0.249397
C36   C     C_3   0.015092 0.481364 0.805311 -0.710633
H18   H     H_    0.051349 0.472567 0.887688 0.227819
H19   H     H_    0.972883 0.411491 0.777339 0.235607
H20   H     H_    0.976448 0.552609 0.821604 0.218765
N5    N     N_2   0.627783 0.647585 0.800572 -0.366819
H21   H     H_    0.689424 0.623151 0.800703 0.240142
C37   C     C_3   0.620961 0.760111 0.829126 -0.648352
H22   H     H_    0.632480 0.794730 0.751376 0.226873
H23   H     H_    0.669316 0.792953 0.899774 0.226933
H24   H     H_    0.557182 0.782561 0.856868 0.209551
N6    N     N_2   0.375296 0.348283 0.198951 -0.367787
H25   H     H_    0.386391 0.269397 0.178592 0.239117
C38   C     C_3   0.285982 0.371088 0.191881 -0.644599
H26   H     H_    0.254788 0.336200 0.258359 0.216979
H27   H     H_    0.255406 0.336977 0.105132 0.224608
H28   H     H_    0.276118 0.456836 0.208706 0.229241
N7    N     N_2   0.365151 0.321051 0.953955 -0.438878
H29   H     H_    0.326401 0.346489 0.890494 0.251091
C39   C     C_3   0.403802 0.222017 0.914735 -0.728059
H30   H     H_    0.354793 0.164914 0.868933 0.230114
H31   H     H_    0.433467 0.190423 0.989884 0.227879
H32   H     H_    0.452694 0.231493 0.854008 0.219869
N8    N     N_2   0.647335 0.663105 0.044397 -0.442625
H33   H     H_    0.627348 0.711898 0.115977 0.242129
C40   C     C_3   0.726625 0.613608 0.067236 -0.693904
H34   H     H_    0.774074 0.673753 0.110894 0.234876
H35   H     H_    0.750957 0.574129 0.984595 0.224769
H36   H     H_    0.718440 0.555333 0.124820 0.230063

loop_
_geom_bond_atom_site_label_1
_geom_bond_atom_site_label_2
_ccdc_geom_bond_type
C25   C31   T    
C11   C18   A    
C26   C32   T    
C22   C29   S    
C27   C29   S    
C14   N5    S    
Cu1   Cu2   S    
C24   C27   S    
C20   O6    A    
C4    H10   S    
N6    H25   S    
C19   O7    A    
Cu1   O8    S    
Cu2   O6    S    
C23   C29   S    
C39   H30   S    
C28   N3    S    
C14   N1    A    
C7    C9    A    
C37   H22   S    
C7    H6    S    
C35   H15   S    
C1    O3    A    
Cu2   O3    S    
N4    C36   S    
C12   C17   A    
Cu1   N1    S    
C24   H2    S    
N8    C40   S    
C9    C10   A    
Cu2   O2    S    
C39   H31   S    
C21   C27   S    
N3    H13   S    
C22   C28   S    
Cu1   O4    S    
C37   H23   S    
C15   H12   S    
C15   N2    A    
C16   H11   S    
C1    C34   S    
N6    C38   S    
C13   N6    S    
N3    C35   S    
Cu1   O5    S    
C36   H18   S    
C12   N8    S    
C16   N1    A    
C4    C6    A    
Cu2   O7    S    
C2    O4    A    
C40   H34   S    
C38   H27   S    
C11   N7    S    
C23   H1    S    
C3    H9    S    
C13   N2    A    
C36   H19   S    
C35   H16   S    
C27   N4    S    
C40   H35   S    
N7    H29   S    
C21   H3    S    
C22   H4    S    
C5    C34   A    
C17   C18   A    
C23   C28   S    
C8    H5    S    
C1    O1    A    
C2    O2    A    
C2    C33   S    
C8    C10   A    
N7    C39   S    
C5    H8    S    
C12   C14   A    
C6    H7    S    
C21   C23   S    
Cu1   O1    S    
C7    C34   A    
C22   C24   S    
C20   O8    A    
Cu2   N2    S    
N5    C37   S    
C39   H32   S    
C19   O5    A    
C15   C17   A    
C3    C5    A    
C38   H28   S    
C21   C30   S    
C6    C33   A    
C36   H20   S    
C28   C30   S    
N8    H33   S    
N5    H21   S    
C29   C31   S    
C3    C10   A    
C40   H36   S    
C30   C32   S    
C11   C13   A    
C20   C26   S    
C37   H24   S    
C8    C33   A    
C35   H14   S    
C19   C25   S    
C24   C30   S    
C38   H26   S    
C16   C18   A    
N4    H17   S    
C4    C9    A    
