data_mof_unit_7546.cif
_audit_creation_date              2012-12-11T14:06:42-0500
_audit_creation_method            fapswitch 2.2
_symmetry_space_group_name_H-M    P1
_symmetry_Int_Tables_number       1
_space_group_crystal_system       triclinic
_cell_length_a                    6.91953
_cell_length_b                    17.455382
_cell_length_c                    24.275969
_cell_angle_alpha                 105.205209
_cell_angle_beta                  90.424882
_cell_angle_gamma                 90.045704
_cell_volume                      2829.39016866

loop_
_atom_site_label
_atom_site_type_symbol
_atom_type_description
_atom_site_fract_x
_atom_site_fract_y
_atom_site_fract_z
_atom_type_partial_charge
O1    O     O_R   0.494290 0.391990 0.999150 -0.534861
O2    O     O_R   0.827170 0.534410 0.082350 -0.521459
O3    O     O_R   0.994360 0.608010 0.000850 -0.539816
C1    C     C_R   0.658902 0.549839 0.106360 0.815533
O4    O     O_R   0.824210 0.388010 0.004470 -0.527078
O5    O     O_R   0.991370 0.460560 0.922410 -0.545681
C2    C     C_R   0.653600 0.355142 0.001034 0.763688
O6    O     O_R   0.497270 0.539440 0.077590 -0.527686
O7    O     O_3   0.659770 0.523970 0.973170 -0.356537
V1    V     V_3+5 0.935840 0.495550 0.004980 1.684218
O8    O     O_R   0.320910 0.465590 0.917650 -0.522871
C3    C     C_R   0.151396 0.450675 0.893804 0.793318
O9    O     O_R   0.323870 0.611990 0.995530 -0.509835
C4    C     C_R   0.153589 0.644773 0.998240 0.794323
V2    V     V_3+5 0.435470 0.504450 0.995020 1.691045
O10   O     O_3   0.161670 0.476030 0.026830 -0.357157
C5    C     C_2   0.140662 0.731407 0.005092 0.075714
C6    C     C_2   0.976619 0.767779 0.992301 0.026479
C7    C     C_R   0.152398 0.241774 0.626614 0.768322
N1    N     N_R   0.128653 0.321970 0.647654 -0.543430
C8    C     C_R   0.110318 0.369417 0.611173 0.664451
C9    C     C_R   0.133910 0.337505 0.551688 -0.051480
C10   C     C_R   0.120682 0.254370 0.529545 -0.051653
C11   C     C_R   0.125578 0.204955 0.567387 -0.179732
C12   C     C_R   0.176423 0.385742 0.514506 -0.065651
C13   C     C_R   0.178911 0.351511 0.454698 -0.074132
C14   C     C_R   0.126888 0.270194 0.432021 -0.065282
C15   C     C_R   0.105064 0.221086 0.469773 -0.052394
C16   C     C_R   0.069232 0.138706 0.447796 -0.162670
C17   C     C_R   0.077379 0.088684 0.485565 0.296099
C18   C     C_R   0.107919 0.121529 0.544705 0.277922
C19   C     C_R   0.098679 0.235688 0.372621 0.712622
N2    N     N_R   0.048540 0.157488 0.352462 -0.545263
C20   C     C_R   0.028249 0.109667 0.388544 0.770754
O11   O     O_2   0.202158 0.198982 0.663261 -0.441612
O12   O     O_2   0.068431 0.446963 0.632409 -0.477108
O13   O     O_2   0.113557 0.280138 0.335014 -0.472635
O14   O     O_2   0.964105 0.034955 0.366702 -0.416083
C21   C     C_R   0.151260 0.071803 0.258942 0.317017
C22   C     C_R   0.128646 0.044151 0.199279 0.212439
C23   C     C_R   0.976362 0.072758 0.170586 -0.288724
C24   C     C_R   0.834790 0.123390 0.204180 -0.143264
C25   C     C_R   0.855623 0.148329 0.264365 0.290710
C26   C     C_R   0.017112 0.124950 0.291556 0.166073
C27   C     C_R   0.274822 0.412609 0.735111 -0.090544
C28   C     C_R   0.276042 0.445853 0.794961 0.224310
C29   C     C_R   0.140573 0.419993 0.830018 -0.215888
C30   C     C_R   0.994762 0.364687 0.803558 -0.149331
C31   C     C_R   0.987543 0.335241 0.743565 0.286479
C32   C     C_R   0.130368 0.356895 0.709147 0.195101
C33   C     C_R   0.525574 0.883539 0.612565 0.713984
N3    N     N_R   0.555789 0.836700 0.648908 -0.553992
C34   C     C_R   0.618156 0.760206 0.628905 0.706877
C35   C     C_R   0.637983 0.725481 0.569282 -0.144498
C36   C     C_R   0.611593 0.774644 0.531594 -0.037972
C37   C     C_R   0.574068 0.856561 0.553864 -0.086913
C38   C     C_R   0.684790 0.644148 0.545996 0.267739
C39   C     C_R   0.673036 0.610151 0.486510 0.283789
C40   C     C_R   0.636584 0.658769 0.449061 -0.125992
C41   C     C_R   0.625184 0.742035 0.471754 -0.089853
C42   C     C_R   0.625725 0.792180 0.434394 -0.101209
C43   C     C_R   0.600598 0.875387 0.457113 0.316936
C44   C     C_R   0.581510 0.908124 0.516937 -0.105802
C45   C     C_R   0.615872 0.627812 0.389169 0.706511
N4    N     N_R   0.636728 0.676179 0.353455 -0.546145
C46   C     C_R   0.657371 0.756409 0.375392 0.771391
O15   O     O_2   0.443078 0.955018 0.633268 -0.454447
O16   O     O_2   0.654447 0.718155 0.667030 -0.470802
O17   O     O_2   0.573285 0.550662 0.366490 -0.489502
O18   O     O_2   0.711325 0.800271 0.339994 -0.417451
C47   C     C_R   0.497497 0.663291 0.256793 0.307377
C48   C     C_R   0.503643 0.633963 0.196865 0.187745
C49   C     C_R   0.651067 0.580381 0.170432 -0.225095
C50   C     C_R   0.791959 0.557108 0.205934 0.189951
C51   C     C_R   0.788138 0.588588 0.266125 -0.095559
C52   C     C_R   0.641034 0.642412 0.291762 0.141871
C53   C     C_R   0.369086 0.838734 0.736852 -0.041523
C54   C     C_R   0.344887 0.866221 0.796954 -0.099287
C55   C     C_R   0.470527 0.925428 0.830010 -0.185894
C56   C     C_R   0.615992 0.958597 0.802069 -0.116150
C57   C     C_R   0.643784 0.929300 0.742466 -0.054775
C58   C     C_R   0.522016 0.868729 0.709823 0.236479
C59   C     C_2   0.638828 0.274373 0.009006 -0.245447
C60   C     C_2   0.481933 0.225605 0.990020 0.055424
O19   O     O_R   0.618210 0.960470 0.922400 -0.547555
O20   O     O_R   0.291310 0.111960 0.995450 -0.534070
O21   O     O_R   0.124210 0.039530 0.077580 -0.537955
C61   C     C_R   0.462527 0.144807 0.998279 0.750875
O22   O     O_R   0.288310 0.965490 0.917650 -0.536332
O23   O     O_R   0.121180 0.892010 0.999220 -0.522428
C62   C     C_R   0.457147 0.951290 0.893890 0.769221
O24   O     O_R   0.621230 0.107990 0.000760 -0.527378
O25   O     O_3   0.455770 0.976060 0.026840 -0.344376
V3    V     V_3+5 0.179680 0.004440 0.995020 1.619101
O26   O     O_R   0.791670 0.888040 0.004570 -0.520163
C63   C     C_R   0.962019 0.854822 0.000665 0.790641
O27   O     O_R   0.794680 0.034510 0.082370 -0.531906
C64   C     C_R   0.964309 0.047664 0.106384 0.785002
V4    V     V_3+5 0.680070 0.995560 0.005010 1.656754
O28   O     O_3   0.953840 0.023940 0.973160 -0.367559
Br1   Br    Br    0.363772 0.789566 0.042271 -0.352202
Br2   Br    Br    0.669691 0.218762 0.310848 -0.343971
C65   C     C_2   0.426632 0.435519 0.699487 0.956132
O29   O     O_2   0.514884 0.384356 0.664774 -0.520141
O30   O     O_R   0.464755 0.515664 0.704406 -0.586144
H1    H     H_    0.575251 0.523524 0.679373 0.378597
Br3   Br    Br    0.463934 0.528028 0.828174 -0.373994
C66   C     C_2   0.852530 0.334217 0.838082 0.898530
O31   O     O_2   0.908051 0.297341 0.871580 -0.525548
O32   O     O_R   0.655278 0.347546 0.832118 -0.629217
H2    H     H_    0.572863 0.324151 0.858041 0.316380
Br4   Br    Br    0.783412 0.262522 0.708222 -0.343530
Br5   Br    Br    0.778642 0.577672 0.592944 -0.327774
Br6   Br    Br    0.733403 0.498412 0.457771 -0.333100
Br7   Br    Br    0.576617 0.944828 0.406634 -0.210649
C67   C     C_2   0.597131 0.996136 0.541227 0.976584
O33   O     O_2   0.695851 0.022708 0.583861 -0.495975
O34   O     O_R   0.502842 0.048984 0.515883 -0.629115
H3    H     H_    0.531051 0.106592 0.536032 0.311375
Br8   Br    Br    0.288316 0.732083 0.291621 -0.278242
Br9   Br    Br    0.762879 0.708232 0.950199 -0.408359
Br10  Br    Br    0.312776 0.673192 0.152436 -0.374654
Br11  Br    Br    0.994424 0.482431 0.173099 -0.387846
C68   C     C_2   0.939170 0.565272 0.302445 0.957118
O35   O     O_2   0.020558 0.615780 0.339972 -0.523837
O36   O     O_R   0.985034 0.485204 0.294618 -0.590048
H4    H     H_    0.099102 0.477243 0.318788 0.360585
C69   C     C_2   0.238980 0.776229 0.701877 0.895622
O37   O     O_2   0.174935 0.782700 0.656225 -0.521470
O38   O     O_R   0.193002 0.709212 0.720586 -0.610079
H5    H     H_    0.104846 0.670916 0.692917 0.361538
C70   C     C_2   0.188127 0.832475 0.825057 0.859978
O39   O     O_2   0.226413 0.802780 0.864188 -0.536011
O40   O     O_R   0.997077 0.834051 0.806215 -0.643079
H6    H     H_    0.903200 0.809747 0.828757 0.317400
C71   C     C_2   0.740778 0.024395 0.835308 0.860972
O41   O     O_2   0.667107 0.084729 0.864965 -0.530252
O42   O     O_R   0.941986 0.017132 0.832551 -0.646987
H7    H     H_    0.010859 0.065593 0.857074 0.330186
C72   C     C_2   0.798570 0.963419 0.713773 0.919231
O43   O     O_2   0.908801 0.919705 0.680798 -0.506394
O44   O     O_R   0.817088 0.045820 0.724457 -0.602111
H8    H     H_    0.930314 0.062111 0.703844 0.378967
C73   C     C_2   0.794005 0.256231 0.046082 0.854770
O45   O     O_2   0.818115 0.300640 0.093796 -0.508359
O46   O     O_R   0.924697 0.194971 0.025131 -0.611872
H9    H     H_    0.023788 0.190613 0.055101 0.296087
Br12  Br    Br    0.281527 0.252279 0.942476 -0.443839
C74   C     C_2   0.255557 0.467162 0.538477 0.929413
O47   O     O_2   0.393120 0.476676 0.571406 -0.516402
O48   O     O_R   0.173548 0.532469 0.524099 -0.595763
H10   H     H_    0.241478 0.584157 0.543362 0.319359
C75   C     C_2   0.259457 0.398050 0.416996 0.929215
O49   O     O_2   0.184488 0.460352 0.414529 -0.501540
O50   O     O_R   0.420356 0.369235 0.383557 -0.594430
H11   H     H_    0.456847 0.403542 0.357425 0.373861
Br13  Br    Br    0.071589 0.973697 0.457924 -0.315970
Br14  Br    Br    0.121209 0.049083 0.592853 -0.298359
Br15  Br    Br    0.371270 0.039043 0.296361 -0.249322
Br16  Br    Br    0.304022 0.963402 0.158573 -0.333007
C76   C     C_2   0.667987 0.153381 0.177298 0.910677
O51   O     O_2   0.693988 0.183229 0.137875 -0.565277
O52   O     O_R   0.481045 0.148457 0.197329 -0.622384
H12   H     H_    0.380544 0.171557 0.175685 0.298283

loop_
_geom_bond_atom_site_label_1
_geom_bond_atom_site_label_2
_ccdc_geom_bond_type
C17   Br13  S    
C2    C59   S    
C36   C37   A    
O36   H4    S    
C57   C72   S    
C6    C63   S    
C49   C50   A    
C35   C36   A    
O26   C63   A    
C1    O6    A    
C69   O37   D    
C57   C58   A    
O19   C62   A    
C24   C76   S    
V1    O10   S    
C8    O12   S    
C46   O18   S    
C34   C35   A    
C67   O33   D    
C40   C45   A    
O25   V3    S    
N4    C52   S    
C47   Br8   S    
C27   C32   A    
C15   C16   A    
C72   O44   S    
C74   O48   S    
O5    C3    A    
C59   C73   S    
O26   V4    S    
V2    O10   S    
O21   V3    S    
O27   C64   A    
C66   O31   D    
C12   C74   S    
C33   C37   A    
C23   C24   A    
O22   V3    S    
C34   O16   S    
C5    Br1   S    
O34   H3    S    
N1    C32   S    
O20   V3    S    
O27   V4    S    
O32   H2    S    
O8    V2    S    
C42   C46   A    
O52   H12   S    
C66   O32   S    
C70   O39   D    
C9    C12   A    
C10   C11   A    
O1    V2    S    
O9    C4    A    
O22   C62   A    
C27   C65   S    
O7    V1    S    
O25   V4    S    
C55   C62   S    
O21   C64   A    
C21   Br15  S    
C50   Br11  S    
C40   C41   A    
O1    C2    A    
C8    C9    A    
C4    C5    S    
C3    C29   S    
C76   O52   S    
C65   O29   D    
O23   V3    S    
C60   Br12  S    
O44   H8    S    
C50   C51   A    
C51   C68   S    
C29   C30   A    
C61   O24   A    
N2    C20   A    
C72   O43   D    
C73   O46   S    
C21   C22   A    
O4    C2    A    
C54   C55   A    
C48   C49   A    
C38   Br5   S    
C12   C13   A    
C53   C54   A    
C16   C20   A    
C33   N3    A    
C41   C42   A    
O2    C1    A    
C51   C52   A    
C16   C17   A    
O19   V4    S    
C59   C60   D    
V3    O28   S    
C17   C18   A    
O48   H10   S    
C28   Br3   S    
C43   C44   A    
C5    C6    D    
C13   C14   A    
C37   C44   A    
C65   O30   S    
C33   O15   S    
C19   O13   S    
N3    C58   S    
C53   C69   S    
C1    C49   S    
C21   C26   A    
O3    C4    A    
C31   Br4   S    
C44   C67   S    
C71   O42   S    
C22   C23   A    
C31   C32   A    
O6    V2    S    
O9    V2    S    
C25   C26   A    
C10   C15   A    
C24   C25   A    
O2    V1    S    
C47   C52   A    
C14   C15   A    
N3    C34   A    
C54   C70   S    
C68   O36   S    
O46   H9    S    
C28   C29   A    
C30   C31   A    
C48   Br10  S    
C14   C19   A    
C20   O14   S    
N2    C26   S    
C22   Br16  S    
C9    C10   A    
C60   C61   S    
C56   C57   A    
C69   O38   S    
O5    V1    S    
O8    C3    A    
O23   C63   A    
O40   H6    S    
C45   O17   S    
O30   H1    S    
C75   O50   S    
C56   C71   S    
V4    O28   S    
C73   O45   D    
C19   N2    A    
C7    N1    A    
O38   H5    S    
C39   C40   A    
C11   C18   A    
C43   Br7   S    
O3    V1    S    
C76   O51   D    
C74   O47   D    
C45   N4    A    
C38   C39   A    
C30   C66   S    
C53   C58   A    
C67   O34   S    
C7    C11   A    
O20   C61   A    
O7    V2    S    
C42   C43   A    
C25   Br2   S    
C18   Br14  S    
O42   H7    S    
C6    Br9   S    
C55   C56   A    
C27   C28   A    
O4    V1    S    
C47   C48   A    
N1    C8    A    
C70   O40   S    
N4    C46   A    
O50   H11   S    
C39   Br6   S    
C23   C64   S    
C71   O41   D    
C13   C75   S    
C7    O11   S    
C75   O49   D    
C36   C41   A    
O24   V4    S    
C68   O35   D    
C35   C38   A    
