data_mof_unit_66869.cif
_audit_creation_date              2013-03-05T15:57:22-0500
_audit_creation_method            fapswitch 2.2
_symmetry_space_group_name_H-M    P1
_symmetry_Int_Tables_number       1
_space_group_crystal_system       triclinic
_cell_length_a                    17.122739
_cell_length_b                    18.547753
_cell_length_c                    8.422284
_cell_angle_alpha                 89.999593
_cell_angle_beta                  102.336369
_cell_angle_gamma                 90.125103
_cell_volume                      2613.05146316

loop_
_atom_site_label
_atom_site_type_symbol
_atom_site_description
_atom_site_fract_x
_atom_site_fract_y
_atom_site_fract_z
_atom_type_partial_charge
P1    P     P_3+3 0.834140 0.419320 0.003900 0.424771
P2    P     P_3+3 0.834140 0.580680 0.503900 0.426550
P3    P     P_3+3 0.334140 0.919320 0.003900 0.424401
P4    P     P_3+3 0.334140 0.080680 0.503900 0.425377
O1    O     O_2   0.841960 0.394640 0.833410 -0.382389
O2    O     O_2   0.841960 0.605360 0.333410 -0.378553
O3    O     O_2   0.341960 0.894640 0.833410 -0.382484
O4    O     O_2   0.341960 0.105360 0.333410 -0.382901
O5    O     O_3   0.907950 0.463080 0.102990 -0.413050
O6    O     O_3   0.907950 0.536920 0.602990 -0.414876
O7    O     O_3   0.407950 0.963080 0.102990 -0.411725
O8    O     O_3   0.407950 0.036920 0.602990 -0.412978
O9    O     O_3   0.972780 0.329600 0.629720 -0.346355
O10   O     O_3   0.972780 0.670400 0.129720 -0.378590
O11   O     O_3   0.472780 0.829600 0.629720 -0.375196
O12   O     O_3   0.472780 0.170400 0.129720 -0.375055
O13   O     O_2   0.840981 0.273187 0.690017 -0.377901
O14   O     O_2   0.837203 0.722519 0.180571 -0.371342
O15   O     O_2   0.339988 0.772621 0.686139 -0.377826
O16   O     O_2   0.340328 0.227507 0.186799 -0.377758
O17   O     O_3   0.744298 0.467934 0.964483 -0.608922
O18   O     O_3   0.744132 0.531971 0.464749 -0.610670
O19   O     O_3   0.244023 0.967261 0.963703 -0.607569
O20   O     O_3   0.243944 0.032199 0.462829 -0.608189
O21   O     O_3   0.953035 0.183970 0.654466 -0.480768
O22   O     O_3   0.944455 0.818233 0.155317 -0.497774
O23   O     O_3   0.448818 0.681156 0.644294 -0.518589
O24   O     O_3   0.449524 0.318841 0.143963 -0.518022
H1    H     H_    0.028621 0.206506 0.495654 0.075504
H2    H     H_    0.065137 0.802843 0.241128 0.152905
H3    H     H_    0.569291 0.705538 0.695349 0.135064
H4    H     H_    0.569958 0.294885 0.189209 0.132251
C1    C     C_3   0.059294 0.107227 0.619972 -0.960426
C2    C     C_3   0.042091 0.900910 0.102526 -1.120647
C3    C     C_3   0.546419 0.600267 0.586248 -1.074319
C4    C     C_3   0.545997 0.400465 0.082418 -1.073518
H5    H     H_    0.602233 0.596933 0.539706 0.250900
H6    H     H_    0.555261 0.427035 0.202802 0.275396
H7    H     H_    0.101823 0.134549 0.719786 0.280708
H8    H     H_    0.101904 0.905035 0.072667 0.248994
H9    H     H_    0.030770 0.060936 0.669367 0.252542
H10   H     H_    0.040304 0.933462 0.211998 0.283317
H11   H     H_    0.555126 0.573552 0.706269 0.275413
H12   H     H_    0.497199 0.429123 0.998340 0.266574
P5    P     P_3+3 0.165830 0.418670 0.685610 0.448461
P6    P     P_3+3 0.165830 0.581330 0.185610 0.444478
P7    P     P_3+3 0.665830 0.918670 0.685610 0.444567
P8    P     P_3+3 0.665830 0.081330 0.185610 0.448129
P9    P     P_3+3 0.100799 0.263891 0.109456 0.459582
P10   P     P_3+3 0.100187 0.736660 0.608787 0.450914
P11   P     P_3+3 0.600786 0.763822 0.108342 0.439421
P12   P     P_3+3 0.600723 0.236363 0.609790 0.440052
O25   O     O_2   0.157990 0.394030 0.856030 -0.366376
O26   O     O_2   0.157990 0.605970 0.356030 -0.372059
O27   O     O_2   0.657990 0.894030 0.856030 -0.380331
O28   O     O_2   0.657990 0.105970 0.356030 -0.364793
O29   O     O_3   0.027110 0.329490 0.059550 -0.370449
O30   O     O_3   0.027110 0.670510 0.559550 -0.343461
O31   O     O_3   0.527110 0.829490 0.059550 -0.372714
O32   O     O_3   0.527110 0.170510 0.559550 -0.373123
O33   O     O_2   0.162052 0.276582 0.001721 -0.368493
O34   O     O_2   0.155197 0.730962 0.485610 -0.396666
O35   O     O_2   0.660326 0.775132 0.996276 -0.385237
O36   O     O_2   0.661371 0.224526 0.500362 -0.382472
O37   O     O_3   0.249521 0.474407 0.731954 -0.599903
O38   O     O_3   0.248626 0.524866 0.232891 -0.596895
O39   O     O_3   0.748406 0.975782 0.729407 -0.600635
O40   O     O_3   0.749875 0.026619 0.231413 -0.594826
O41   O     O_3   0.056464 0.181827 0.039614 -0.506098
O42   O     O_3   0.047929 0.817234 0.561003 -0.499175
O43   O     O_3   0.555288 0.681487 0.043855 -0.522605
O44   O     O_3   0.555626 0.318346 0.542492 -0.522438
C5    C     C_3   0.986190 0.172201 0.097898 0.565194
C6    C     C_3   0.015843 0.836410 0.695484 0.405859
C7    C     C_3   0.485099 0.673738 0.103560 0.530188
C8    C     C_3   0.484413 0.325898 0.598547 0.530447
H13   H     H_    0.934078 0.189151 0.002615 0.126222
H14   H     H_    0.995726 0.788801 0.756555 0.061031
H15   H     H_    0.432793 0.688155 0.006131 0.123857
H16   H     H_    0.432947 0.311223 0.499210 0.126727
H17   H     H_    0.985086 0.203093 0.210407 -0.030057
H18   H     H_    0.061148 0.867624 0.782714 0.074370
H19   H     H_    0.483427 0.707757 0.211191 0.016850
H20   H     H_    0.481473 0.291958 0.705707 0.016775
C9    C     C_3   0.978352 0.092764 0.134853 -1.128646
C10   C     C_3   0.942393 0.882288 0.640018 -0.984807
C11   C     C_3   0.478036 0.595641 0.152324 -1.107349
C12   C     C_3   0.476737 0.403991 0.646474 -1.109298
H21   H     H_    0.425553 0.589420 0.208917 0.233308
H22   H     H_    0.423855 0.409777 0.701888 0.232964
H23   H     H_    0.923280 0.083981 0.181452 0.229077
H24   H     H_    0.895927 0.848391 0.562683 0.267171
H25   H     H_    0.975475 0.060186 0.023271 0.285090
H26   H     H_    0.957207 0.930124 0.572688 0.257242
H27   H     H_    0.471089 0.560184 0.044250 0.278489
H28   H     H_    0.470076 0.439294 0.538184 0.278526
C13   C     C_3   0.223917 0.455379 0.264370 0.333123
C14   C     C_3   0.226164 0.543906 0.765779 0.330314
C15   C     C_3   0.727147 0.955418 0.251489 0.263610
C16   C     C_3   0.723651 0.045253 0.760294 0.312590
H29   H     H_    0.186333 0.456835 0.356433 0.091039
H30   H     H_    0.188472 0.542243 0.857651 0.093270
H31   H     H_    0.707701 0.950411 0.368196 0.087023
H32   H     H_    0.688191 0.043952 0.856103 0.087934
H33   H     H_    0.189784 0.430284 0.151063 0.137386
H34   H     H_    0.192642 0.569901 0.653130 0.132910
H35   H     H_    0.679086 0.936218 0.150213 0.153271
H36   H     H_    0.687367 0.069276 0.648064 0.148897
C17   C     C_3   0.297798 0.409658 0.329795 -0.639139
C18   C     C_3   0.300931 0.588531 0.833451 -0.635421
C19   C     C_3   0.799830 0.908340 0.254709 -0.534833
C20   C     C_3   0.797444 0.092301 0.818356 -0.622098
H37   H     H_    0.320961 0.423252 0.459575 0.207045
H38   H     H_    0.322911 0.574688 0.963461 0.206805
H39   H     H_    0.843262 0.920475 0.367848 0.207908
H40   H     H_    0.822055 0.081059 0.948557 0.195937
H41   H     H_    0.281597 0.351770 0.322271 0.211192
H42   H     H_    0.286141 0.646656 0.825917 0.213308
H43   H     H_    0.782875 0.850619 0.253810 0.219295
H44   H     H_    0.780617 0.149954 0.806828 0.215906
Ba1   Ba    Ba6+2 1.000000 0.447380 0.844850 1.533793
Ba2   Ba    Ba6+2 0.000000 0.552620 0.344850 1.531626
Ba3   Ba    Ba6+2 0.500000 0.947380 0.844850 1.520823
Ba4   Ba    Ba6+2 0.500000 0.052620 0.344850 1.521610
C21   C     C_3   0.757101 0.542131 0.985552 0.403301
C22   C     C_3   0.756793 0.457780 0.485146 0.400343
C23   C     C_3   0.256783 0.041273 0.986326 0.404808
C24   C     C_3   0.256200 0.958180 0.487138 0.428182
H45   H     H_    0.811851 0.555742 0.075389 0.174301
H46   H     H_    0.811659 0.444130 0.574500 0.173049
H47   H     H_    0.310140 0.054358 0.080009 0.175055
H48   H     H_    0.309512 0.945534 0.580968 0.172610
C25   C     C_3   0.686753 0.575065 0.042350 -0.861795
C26   C     C_3   0.686646 0.424569 0.542513 -0.857571
C27   C     C_3   0.185041 0.074192 0.037695 -0.869684
C28   C     C_3   0.184022 0.925479 0.538819 -0.908855
H49   H     H_    0.629516 0.558215 0.962483 0.259969
H50   H     H_    0.629328 0.440530 0.461914 0.260429
H51   H     H_    0.128793 0.057840 0.953247 0.268573
H52   H     H_    0.127928 0.942415 0.455590 0.256511
H53   H     H_    0.692398 0.634444 0.039527 0.268501
H54   H     H_    0.692899 0.365246 0.541265 0.267325
H55   H     H_    0.191416 0.133556 0.037121 0.267601
H56   H     H_    0.188763 0.866089 0.536409 0.266328
H57   H     H_    0.685944 0.557673 0.167430 0.255580
H58   H     H_    0.685589 0.442508 0.667110 0.255450
H59   H     H_    0.181771 0.056271 0.161364 0.256077
H60   H     H_    0.181347 0.942801 0.663162 0.254953
O45   O     O_3   0.092100 0.536880 0.086720 -0.402339
O46   O     O_3   0.092100 0.463120 0.586720 -0.403976
O47   O     O_3   0.592100 0.036880 0.086720 -0.402343
O48   O     O_3   0.592100 0.963120 0.586720 -0.395769
P13   P     P_3+3 0.900519 0.736850 0.078441 0.468306
P14   P     P_3+3 0.901655 0.262103 0.580215 0.470454
P15   P     P_3+3 0.401664 0.237751 0.077915 0.456421
P16   P     P_3+3 0.401499 0.762226 0.577905 0.456043
C29   C     C_3   0.996632 0.161092 0.540621 0.393994
C30   C     C_3   0.023062 0.822512 0.130932 0.542476
C31   C     C_3   0.523444 0.678690 0.600220 0.505585
C32   C     C_3   0.523264 0.321858 0.096214 0.504393
H61   H     H_    0.955368 0.134286 0.438475 0.052212
H62   H     H_    0.033082 0.790515 0.025930 -0.012172
H63   H     H_    0.522900 0.704922 0.481592 0.017629
H64   H     H_    0.521301 0.296092 0.976465 0.018196
H65   H     H_    0.497965 0.571432 0.501377 0.268170
H66   H     H_    0.601493 0.404210 0.034785 0.251998
H67   H     H_    0.092530 0.087074 0.529353 0.232677
H68   H     H_    0.997277 0.923186 0.999705 0.262841
H69   H     H_    0.532955 0.579182 0.240412 0.282547
H70   H     H_    0.531207 0.420955 0.735521 0.282770
H71   H     H_    0.030715 0.075057 0.228479 0.273892
H72   H     H_    0.918676 0.900403 0.745883 0.218417
C33   C     C_R   0.138916 0.676382 0.921227 -0.503902
C34   C     C_R   0.136012 0.321350 0.424317 -0.497776
C35   C     C_R   0.636206 0.178290 0.924250 -0.518020
C36   C     C_R   0.638224 0.822904 0.421545 -0.518773
C37   C     C_R   0.869198 0.318455 0.261996 -0.467780
C38   C     C_R   0.869655 0.681922 0.760026 -0.460838
C39   C     C_R   0.369809 0.818160 0.260568 -0.491889
C40   C     C_R   0.369496 0.182081 0.760145 -0.492247
C41   C     C_R   0.793941 0.211353 0.299604 -0.216407
C42   C     C_R   0.793531 0.787893 0.798727 -0.193626
C43   C     C_R   0.294324 0.711238 0.298715 -0.209299
C44   C     C_R   0.293907 0.288521 0.798933 -0.205960
C45   C     C_R   0.852333 0.262684 0.361596 0.153852
C46   C     C_R   0.852502 0.737212 0.859895 0.195325
C47   C     C_R   0.352529 0.762736 0.360261 0.203382
C48   C     C_R   0.352271 0.237281 0.860215 0.202234
C49   C     C_R   0.821289 0.330253 0.106776 0.306592
C50   C     C_R   0.821530 0.669961 0.605279 0.322398
C51   C     C_R   0.321969 0.829875 0.105519 0.307565
C52   C     C_R   0.321240 0.169923 0.605623 0.305479
C53   C     C_R   0.758646 0.279320 0.045495 -0.062739
C54   C     C_R   0.759157 0.720986 0.543585 -0.057233
C55   C     C_R   0.260184 0.778288 0.043358 -0.052558
C56   C     C_R   0.258433 0.220595 0.544668 -0.056216
C57   C     C_R   0.246926 0.717538 0.140630 -0.069159
C58   C     C_R   0.245669 0.281634 0.641620 -0.061930
C59   C     C_R   0.745775 0.218263 0.142167 -0.055835
C60   C     C_R   0.746138 0.781778 0.640697 -0.069509
C61   C     C_R   0.184758 0.666474 0.078220 0.281161
C62   C     C_R   0.183292 0.332456 0.579715 0.297221
C63   C     C_R   0.683326 0.167398 0.079839 0.279817
C64   C     C_R   0.684327 0.833095 0.578264 0.281991
C65   C     C_R   0.155169 0.732365 0.822766 0.155121
C66   C     C_R   0.151181 0.264685 0.326407 0.171344
C67   C     C_R   0.651457 0.235070 0.826648 0.190485
C68   C     C_R   0.652979 0.765922 0.324167 0.192759
C69   C     C_R   0.212220 0.784634 0.885896 -0.221744
C70   C     C_R   0.209231 0.213234 0.388445 -0.196381
C71   C     C_R   0.709513 0.286617 0.889244 -0.212003
C72   C     C_R   0.710296 0.713976 0.387014 -0.207021
H73   H     H_    0.285651 0.667692 0.378030 0.183570
H74   H     H_    0.285607 0.332235 0.877990 0.182925
H75   H     H_    0.785561 0.167547 0.378340 0.179285
H76   H     H_    0.783978 0.830573 0.878230 0.183633
H77   H     H_    0.717169 0.330835 0.812097 0.190900
H78   H     H_    0.717398 0.669495 0.310210 0.189910
H79   H     H_    0.219265 0.829109 0.808795 0.188800
H80   H     H_    0.216962 0.169172 0.310758 0.188277
H81   H     H_    0.092535 0.637887 0.871557 0.169709
H82   H     H_    0.090106 0.360050 0.374401 0.166065
H83   H     H_    0.590280 0.139457 0.874122 0.172850
H84   H     H_    0.592957 0.862089 0.371068 0.173791
H85   H     H_    0.915170 0.357258 0.312065 0.169461
H86   H     H_    0.915659 0.643303 0.809967 0.165378
H87   H     H_    0.415873 0.856886 0.310658 0.173810
H88   H     H_    0.415941 0.143793 0.809647 0.172972
N1    N     N_3   0.360248 0.421695 0.238669 -0.122481
H89   H     H_    0.335018 0.421062 0.114013 0.187326
H90   H     H_    0.385979 0.472353 0.268246 0.175101
N2    N     N_3   0.363989 0.575499 0.744454 -0.123932
H91   H     H_    0.339523 0.575785 0.619420 0.189624
H92   H     H_    0.388833 0.524741 0.775613 0.173405
N3    N     N_3   0.837004 0.923520 0.117324 -0.136846
H93   H     H_    0.793622 0.937899 0.015935 0.187723
H94   H     H_    0.875263 0.967678 0.146171 0.176461
N4    N     N_3   0.858657 0.078922 0.724893 -0.128454
H95   H     H_    0.832305 0.078303 0.600792 0.175871
H96   H     H_    0.884579 0.028532 0.756193 0.168182
N5    N     N_3   0.762719 0.573812 0.832129 -0.226522
H97   H     H_    0.710487 0.562425 0.746510 0.145441
H98   H     H_    0.809169 0.546426 0.796742 0.131523
N6    N     N_3   0.761887 0.426337 0.331214 -0.223256
H99   H     H_    0.709462 0.437581 0.246183 0.146148
H100  H     H_    0.808141 0.454009 0.295361 0.132618
N7    N     N_3   0.265777 0.073233 0.835266 -0.224199
H101  H     H_    0.216105 0.059975 0.744793 0.150254
H102  H     H_    0.314919 0.047621 0.806080 0.130428
N8    N     N_3   0.265153 0.925480 0.336838 -0.222295
H103  H     H_    0.215011 0.937643 0.246808 0.143061
H104  H     H_    0.313715 0.951590 0.305898 0.128649

loop_
_geom_bond_atom_site_label_1
_geom_bond_atom_site_label_2
_geom_bond_distance
_ccdc_geom_bond_type
C21   H45   1.100432 S    
C43   H73   1.078197 S    
C15   H31   1.106974 S    
C12   H28   1.108813 S    
P1    O17   1.754295 S    
C14   C18   1.527243 S    
O16   P15   1.546207 D    
P12   O36   1.544653 D    
P12   C67   1.847492 S    
P4    C52   1.898719 S    
P3    O19   1.751873 S    
O7    Ba4   2.829932 S    
C34   H82   1.082175 S    
C35   C67   1.394105 A    
O44   C8    1.405739 S    
O6    Ba1   2.833951 S    
C33   H81   1.082162 S    
C18   H42   1.106685 S    
H4    C32   1.112263 S    
C9    H23   1.107818 S    
C37   C45   1.399762 A    
Ba3   Ba4   4.641526 S    
C10   H24   1.108567 S    
P2    O2    1.539873 D    
N6    H99   1.043203 S    
C25   H49   1.107981 S    
C13   H29   1.108781 S    
P8    C63   1.882454 S    
C43   C57   1.408448 A    
O11   Ba3   2.811976 S    
P12   O32   1.739283 S    
C10   H72   1.108206 S    
C38   H86   1.082306 S    
C32   H64   1.110028 S    
O38   C13   1.398538 S    
C33   C61   1.398340 A    
C3    H5    1.109579 S    
C23   C27   1.516363 S    
O37   C14   1.397739 S    
C55   C69   1.407888 A    
P3    O3    1.540052 D    
P15   C48   1.847849 S    
C24   C28   1.520299 S    
P4    O20   1.754738 S    
C54   C72   1.408505 A    
O18   C22   1.398397 S    
C39   C47   1.397904 A    
P13   C46   1.848624 S    
C22   H46   1.100894 S    
O23   C31   1.405566 S    
C11   H69   1.109527 S    
O1    Ba1   2.857633 S    
O24   C32   1.405618 S    
P9    O29   1.740457 S    
Ba1   O46   2.960001 S    
P4    Ba4   3.429699 S    
C19   H43   1.108238 S    
N5    H97   1.043109 S    
C42   C46   1.396602 A    
C5    H17   1.110972 S    
P4    O4    1.539873 D    
O32   Ba4   2.811306 S    
C36   C64   1.398305 A    
C23   H47   1.098721 S    
C10   H26   1.110685 S    
N4    H95   1.046258 S    
C17   N1    1.460123 S    
P6    C61   1.881507 S    
C54   C60   1.438419 A    
P1    O5    1.580308 S    
C1    C29   1.514683 S    
P5    C62   1.886254 S    
C53   C71   1.409021 A    
C37   C49   1.404422 A    
C11   H27   1.108413 S    
P2    O18   1.754127 S    
O24   P15   1.744408 S    
C19   N3    1.461920 S    
N3    H93   1.040148 S    
C21   N5    1.441207 S    
P4    O8    1.583134 S    
C40   C48   1.397529 A    
C18   H38   1.109448 S    
O28   Ba4   2.861067 S    
C28   H52   1.107332 S    
C56   C70   1.409059 A    
N7    H102  1.041283 S    
Ba4   O48   2.833911 S    
P5    O25   1.539188 D    
C2    H10   1.108011 S    
P9    O41   1.744498 S    
C42   H76   1.071988 S    
C67   C71   1.397186 A    
N3    H94   1.043380 S    
C8    H20   1.110242 S    
C1    H67   1.110232 S    
C9    H25   1.109422 S    
C6    H18   1.109615 S    
C2    H68   1.107647 S    
O13   P14   1.545406 D    
C24   H48   1.097950 S    
P7    O39   1.740100 S    
P3    Ba3   3.427813 S    
C50   C54   1.439993 A    
C51   C55   1.437950 A    
P2    Ba2   3.429699 S    
O31   Ba3   2.812863 S    
C71   H77   1.071417 S    
P14   C45   1.854506 S    
N4    H96   1.044902 S    
O30   Ba2   2.811306 S    
C16   H36   1.108276 S    
C17   H41   1.106783 S    
P10   O30   1.736259 S    
Ba2   O45   2.960684 S    
C8    H16   1.111104 S    
P7    O48   1.588223 S    
P11   O35   1.544175 D    
C56   C58   1.440008 A    
C40   C52   1.402499 A    
C70   H80   1.072856 S    
O20   C24   1.397747 S    
C20   H44   1.106929 S    
C4    C32   1.519072 S    
P11   C68   1.846641 S    
O4    Ba4   2.861675 S    
H1    C29   1.113385 S    
C12   H70   1.109589 S    
P5    Ba1   3.432011 S    
N8    H103  1.041948 S    
C14   H30   1.108829 S    
O29   Ba1   2.812863 S    
C40   H88   1.082298 S    
C39   H87   1.082294 S    
C24   N8    1.441219 S    
C44   C48   1.397163 A    
O15   P16   1.545511 D    
C69   H79   1.072268 S    
C27   H51   1.109706 S    
P10   C65   1.848213 S    
O42   C6    1.406403 S    
N1    H89   1.046526 S    
P12   O44   1.745806 S    
C38   C46   1.397243 A    
C43   C47   1.396213 A    
C60   C64   1.438470 A    
C26   H54   1.106019 S    
O9    Ba1   2.811976 S    
C66   C70   1.397820 A    
C25   H57   1.104639 S    
C44   H74   1.077922 S    
C52   C56   1.439407 A    
C34   C62   1.399043 A    
C65   C69   1.396699 A    
C68   C72   1.397796 A    
C23   N7    1.441213 S    
C15   C19   1.517363 S    
P6    O26   1.539368 D    
O12   P15   1.735883 S    
C4    H66   1.109661 S    
O5    Ba2   2.829932 S    
Ba1   Ba2   4.641526 S    
C22   N6    1.441210 S    
C42   C60   1.407468 A    
C41   H75   1.077331 S    
C1    H7    1.109337 S    
C6    C10   1.509191 S    
O41   C5    1.404352 S    
C17   H37   1.109033 S    
C5    C9    1.517479 S    
O11   P16   1.734210 S    
C28   H60   1.105728 S    
O14   P13   1.543738 D    
C18   N2    1.460501 S    
O39   C16   1.398983 S    
C58   C62   1.437913 A    
C2    C30   1.519558 S    
C27   H59   1.106051 S    
C7    C11   1.517210 S    
Ba4   O47   2.960684 S    
C12   H22   1.109159 S    
C16   C20   1.525893 S    
N8    H104  1.041469 S    
C20   N4    1.460659 S    
C11   H21   1.109355 S    
O10   P13   1.736321 S    
P5    O37   1.740458 S    
P10   O34   1.546824 D    
P1    O1    1.540052 D    
C4    H12   1.109615 S    
P11   O31   1.740418 S    
O2    Ba2   2.861675 S    
O17   C21   1.398402 S    
C41   C59   1.409967 A    
O27   Ba3   2.865151 S    
C29   H61   1.106923 S    
C20   H40   1.107470 S    
C3    H11   1.107024 S    
P7    O27   1.539188 D    
P16   C47   1.845679 S    
C21   C25   1.517352 S    
O23   P16   1.744097 S    
H2    C30   1.108580 S    
C8    C12   1.517144 S    
Ba3   O48   2.960001 S    
P5    O46   1.588223 S    
C41   C45   1.396962 A    
C36   H84   1.082296 S    
O21   P14   1.742330 S    
C25   H53   1.106075 S    
C13   H33   1.108793 S    
Ba1   O45   2.829891 S    
Ba3   O47   2.829891 S    
P6    Ba2   3.430084 S    
P2    C50   1.896902 S    
O3    Ba3   2.857633 S    
P8    O40   1.737432 S    
N2    H92   1.044122 S    
C26   H50   1.108265 S    
C19   H39   1.099175 S    
N7    H101  1.042410 S    
P11   O43   1.745859 S    
P6    O38   1.740832 S    
P7    Ba3   3.432011 S    
P8    O28   1.539368 D    
C33   C65   1.393069 A    
C15   H35   1.109234 S    
O19   C23   1.396221 S    
C44   C58   1.409225 A    
C14   H34   1.109310 S    
C57   C61   1.436314 A    
C26   H58   1.104725 S    
C1    H9    1.110757 S    
C36   C68   1.393983 A    
C16   H32   1.108888 S    
C4    H6    1.107694 S    
C13   C17   1.526413 S    
O12   Ba4   2.813537 S    
O40   C15   1.396401 S    
C35   C63   1.399248 A    
N1    H90   1.044171 S    
C53   C59   1.438602 A    
O43   C7    1.405490 S    
P9    O33   1.544130 D    
C7    H19   1.109896 S    
O8    Ba3   2.833951 S    
C72   H78   1.071424 S    
C38   C50   1.402563 A    
C27   H55   1.106352 S    
N2    H91   1.046888 S    
C3    H65   1.109048 S    
N6    H100  1.040328 S    
P7    C64   1.887199 S    
O22   C30   1.406319 S    
C31   H63   1.109543 S    
P10   O42   1.745869 S    
P3    C51   1.898141 S    
P1    Ba1   3.427813 S    
O9    P14   1.732247 S    
Ba2   O46   2.833911 S    
C3    C31   1.518752 S    
P3    O7    1.580308 S    
C30   H62   1.108617 S    
O21   C29   1.401396 S    
C37   H85   1.082195 S    
C9    H71   1.110285 S    
C59   C63   1.436931 A    
C49   C53   1.438169 A    
O26   Ba2   2.861067 S    
P6    O45   1.585365 S    
C39   C51   1.402572 A    
P9    C66   1.846498 S    
C22   C26   1.516663 S    
C5    H13   1.110979 S    
C28   H56   1.105230 S    
P8    Ba4   3.430084 S    
C6    H14   1.112349 S    
P8    O47   1.585365 S    
C34   C66   1.394568 A    
O10   Ba2   2.813537 S    
C35   H83   1.082171 S    
C2    H8    1.108034 S    
O22   P13   1.746613 S    
O25   Ba1   2.865151 S    
N5    H98   1.040416 S    
C7    H15   1.110854 S    
H3    C31   1.111626 S    
P1    C49   1.899507 S    
C55   C57   1.438987 A    
P2    O6    1.583134 S    
