data_mof_unit_42152.cif
_audit_creation_date              2012-12-11T15:45:02-0500
_audit_creation_method            fapswitch 2.2
_symmetry_space_group_name_H-M    P1
_symmetry_Int_Tables_number       1
_space_group_crystal_system       triclinic
_cell_length_a                    6.934697
_cell_length_b                    16.769675
_cell_length_c                    17.081377
_cell_angle_alpha                 100.295329
_cell_angle_beta                  89.378312
_cell_angle_gamma                 90.659178
_cell_volume                      1954.24815183

loop_
_atom_site_label
_atom_site_type_symbol
_atom_type_description
_atom_site_fract_x
_atom_site_fract_y
_atom_site_fract_z
_atom_type_partial_charge
O1    O     O_R   0.494370 0.415690 0.413450 -0.542724
O2    O     O_R   0.819420 0.429360 0.578420 -0.540698
O3    O     O_R   0.994280 0.584310 0.586550 -0.541944
C1    C     C_R   0.651371 0.414241 0.605663 0.699191
O4    O     O_R   0.823790 0.406230 0.413570 -0.543250
O5    O     O_R   0.998670 0.561000 0.420530 -0.538913
C2    C     C_R   0.654884 0.382957 0.385017 0.684049
O6    O     O_R   0.489970 0.439000 0.579470 -0.537716
O7    O     O_3   0.662300 0.550810 0.502470 -0.366074
V1    V     V_3+5 0.935380 0.490570 0.499540 1.406671
O8    O     O_R   0.328650 0.570640 0.421580 -0.536177
C3    C     C_R   0.162594 0.586232 0.394643 0.704446
O9    O     O_R   0.324290 0.593770 0.586430 -0.542336
C4    C     C_R   0.155112 0.616940 0.615070 0.687768
V2    V     V_3+5 0.435930 0.509430 0.500460 1.415247
O10   O     O_3   0.159140 0.449190 0.497530 -0.369745
C5    C     C_R   0.312080 0.724052 0.717682 -0.152201
H1    H     H_    0.452929 0.705068 0.693934 0.117491
C6    C     C_R   0.300829 0.787841 0.782795 -0.152237
H2    H     H_    0.433607 0.816135 0.807032 0.117837
C7    C     C_R   0.121088 0.814747 0.815992 -0.045280
C8    C     C_R   0.952922 0.776083 0.782151 -0.155044
H3    H     H_    0.812069 0.795062 0.805898 0.115710
C9    C     C_R   0.964173 0.712297 0.717040 -0.149896
H4    H     H_    0.831390 0.684003 0.692807 0.118531
C10   C     C_R   0.143912 0.685375 0.683855 -0.046725
C11   C     C_R   0.168986 0.639000 0.333066 -0.103318
C12   C     C_R   0.095194 0.864229 0.170096 -0.257162
C13   C     C_R   0.906301 0.810277 0.271640 0.515626
C14   C     C_R   0.931677 0.867605 0.221729 0.338041
C15   C     C_R   0.238876 0.807119 0.175599 -0.262368
C16   C     C_R   0.215826 0.751225 0.227878 0.077085
C17   C     C_R   0.047020 0.751898 0.275464 -0.039482
C18   C     C_R   0.023499 0.695093 0.327025 -0.159182
C19   C     C_R   0.335292 0.638779 0.284732 -0.140355
C20   C     C_R   0.357967 0.693724 0.232591 -0.050841
H5    H     H_    0.896344 0.696516 0.364681 0.176388
H6    H     H_    0.450238 0.596305 0.287946 0.119588
H7    H     H_    0.488244 0.691876 0.196710 0.120564
H8    H     H_    0.365058 0.804187 0.137188 0.166818
C21   C     C_R   0.654503 0.363915 0.669138 -0.067108
C22   C     C_R   0.610375 0.135998 0.830774 -0.066479
C23   C     C_R   0.426530 0.179275 0.724391 -0.187292
C24   C     C_R   0.454587 0.125926 0.777357 -0.156454
C25   C     C_R   0.741321 0.200143 0.828755 -0.239546
C26   C     C_R   0.712294 0.254960 0.776028 0.155961
C27   C     C_R   0.552855 0.244796 0.723699 0.154389
C28   C     C_R   0.523755 0.299664 0.671021 -0.238924
C29   C     C_R   0.810367 0.373928 0.722512 -0.159552
C30   C     C_R   0.838605 0.320483 0.775357 -0.189369
H9    H     H_    0.405087 0.290380 0.629477 0.120719
H10   H     H_    0.913950 0.422744 0.722183 0.122199
H11   H     H_    0.304056 0.169917 0.684817 0.123483
H12   H     H_    0.961121 0.329814 0.814909 0.120891
H13   H     H_    0.350929 0.077149 0.777751 0.124191
H14   H     H_    0.860020 0.209432 0.870283 0.119573
C31   C     C_R   0.812008 0.278023 0.280442 -0.155759
H15   H     H_    0.952895 0.298554 0.302782 0.117871
C32   C     C_R   0.800838 0.214554 0.215055 -0.169334
H16   H     H_    0.933687 0.187927 0.189291 0.116899
C33   C     C_R   0.621033 0.185633 0.183673 -0.058133
C34   C     C_R   0.452727 0.221896 0.219671 -0.152857
H17   H     H_    0.311820 0.201106 0.197548 0.114260
C35   C     C_R   0.463903 0.285460 0.284987 -0.156200
H18   H     H_    0.331018 0.311870 0.310940 0.118133
C36   C     C_R   0.643702 0.314493 0.316260 -0.048777
O11   O     O_R   0.774880 0.061150 0.920630 -0.538329
O12   O     O_R   0.440980 0.093710 0.086500 -0.542736
O13   O     O_R   0.266190 0.938890 0.079390 -0.534072
C37   C     C_R   0.609885 0.117186 0.114873 0.687252
O14   O     O_R   0.445420 0.070740 0.921670 -0.542013
O15   O     O_R   0.270660 0.915760 0.913380 -0.543929
C38   C     C_R   0.613457 0.085800 0.894361 0.695967
O16   O     O_R   0.770400 0.084270 0.086640 -0.543700
O17   O     O_3   0.602590 0.949210 0.997500 -0.362627
V3    V     V_3+5 0.329470 0.009420 0.000470 1.413474
O18   O     O_R   0.940650 0.906250 0.913470 -0.545814
C39   C     C_R   0.109853 0.883133 0.884822 0.676904
O19   O     O_R   0.936210 0.929220 0.078300 -0.517556
C40   C     C_R   0.102019 0.914649 0.106172 0.756645
V4    V     V_3+5 0.828930 0.990510 0.999490 1.434260
O20   O     O_3   0.105680 0.050790 0.002500 -0.375000
F1    F     F_    0.743048 0.812272 0.316675 -0.690410
O21   O     O_3   0.786359 0.923198 0.220197 -0.544654
C41   C     C_3   0.844091 0.000031 0.262529 0.117492
H19   H     H_    0.761906 0.046086 0.238183 0.136628
H20   H     H_    0.999850 0.014184 0.254293 0.070068
C42   C     C_3   0.794063 0.008397 0.351207 -0.270805
H21   H     H_    0.640622 0.990857 0.358242 0.231211
H22   H     H_    0.886292 0.967369 0.378656 0.207170
C43   C     C_3   0.825468 0.095289 0.394648 -0.862772
H23   H     H_    0.977646 0.114531 0.387826 0.233796
H24   H     H_    0.792788 0.099069 0.458979 0.239916
H25   H     H_    0.728435 0.137143 0.370598 0.243465

loop_
_geom_bond_atom_site_label_1
_geom_bond_atom_site_label_2
_ccdc_geom_bond_type
C33   C37   S    
C18   H5    S    
C19   C20   A    
C31   C36   A    
O15   V3    S    
V4    O20   S    
O18   C39   A    
C34   H17   S    
C5    C10   A    
C16   C20   A    
C6    C7    A    
C9    C10   A    
C13   F1    S    
O5    C3    A    
O14   V3    S    
C31   C32   A    
C1    C21   S    
V2    O10   S    
C13   C17   A    
C15   H8    S    
O13   V3    S    
O15   C39   A    
O8    V2    S    
C23   H11   S    
C28   H9    S    
C27   C28   A    
C25   H14   S    
C7    C39   S    
C37   O16   A    
C34   C35   A    
O11   C38   A    
O7    V1    S    
C1    O6    A    
C32   H16   S    
O9    C4    A    
C22   C24   A    
C21   C29   A    
C5    H1    S    
C41   H20   S    
C11   C18   A    
C32   C33   A    
C3    C11   S    
C19   H6    S    
C9    H4    S    
V3    O20   S    
C43   H23   S    
O4    C2    A    
O17   V4    S    
C11   C19   A    
C41   H19   S    
C20   H7    S    
C4    C10   S    
C22   C25   A    
C35   C36   A    
O2    C1    A    
O17   V3    S    
C13   C14   A    
C43   H24   S    
C15   C16   A    
C42   C43   S    
O18   V4    S    
C29   H10   S    
C17   C18   A    
C30   H12   S    
O21   C41   S    
O3    C4    A    
O1    V2    S    
C42   H22   S    
O11   V4    S    
O6    V2    S    
O9    V2    S    
C23   C24   A    
C8    C9    A    
O16   V4    S    
O2    V1    S    
O19   V4    S    
C41   C42   S    
C26   C27   A    
C22   C38   S    
O1    C2    A    
C12   C15   A    
O5    V1    S    
O8    C3    A    
O12   V3    S    
C26   C30   A    
C16   C17   A    
C6    H2    S    
C12   C14   A    
O7    V2    S    
O4    V1    S    
O3    V1    S    
V1    O10   S    
C35   H18   S    
C43   H25   S    
C24   H13   S    
C31   H15   S    
C5    C6    A    
C21   C28   A    
C14   O21   S    
C33   C34   A    
C12   C40   S    
O19   C40   A    
C25   C26   A    
C42   H21   S    
O12   C37   A    
C29   C30   A    
O14   C38   A    
C8    H3    S    
O13   C40   A    
C7    C8    A    
C23   C27   A    
C2    C36   S    
