data_mof_unit_43163.cif
_audit_creation_date              2012-12-10T16:51:32-0500
_audit_creation_method            fapswitch 2.2
_symmetry_space_group_name_H-M    P1
_symmetry_Int_Tables_number       1
_space_group_crystal_system       triclinic
_cell_length_a                    7.851016
_cell_length_b                    8.586641
_cell_length_c                    12.670037
_cell_angle_alpha                 93.683167
_cell_angle_beta                  103.121762
_cell_angle_gamma                 92.982748
_cell_volume                      828.163767964

loop_
_atom_site_label
_atom_site_type_symbol
_atom_type_description
_atom_site_fract_x
_atom_site_fract_y
_atom_site_fract_z
_atom_type_partial_charge
C1    C     C_R   0.045030 0.794598 0.501390 0.986470
C2    C     C_R   0.180356 0.568993 0.825008 -0.135482
C3    C     C_2   0.062736 0.957504 0.496782 -0.518328
C4    C     C_R   0.112822 0.526483 0.708078 0.897035
C5    C     C_2   0.956253 0.051068 0.536177 0.274985
C6    C     C_R   0.960313 0.207029 0.508475 0.859714
C7    C     C_R   0.888030 0.481021 0.292294 0.852459
C8    C     C_R   0.836833 0.365937 0.996165 -0.177846
C9    C     C_R   0.816900 0.452469 0.177056 -0.053811
C10   C     C_R   0.069296 0.622119 0.889749 -0.134994
C11   C     C_R   0.125504 0.633436 0.002365 -0.139415
C12   C     C_R   0.405243 0.536038 0.986444 0.085831
C13   C     C_R   0.286911 0.579748 0.050841 -0.190039
C14   C     C_2   0.507319 0.696066 0.757704 0.412521
C15   C     C_R   0.356221 0.550248 0.874403 -0.010140
C16   C     C_R   0.573299 0.483630 0.027880 0.083705
C17   C     C_R   0.676712 0.430282 0.955913 0.109975
C18   C     C_R   0.632549 0.467660 0.848547 -0.220570
C19   C     C_R   0.488934 0.556040 0.816838 -0.005375
C20   C     C_R   0.647733 0.496461 0.137647 -0.252813
C21   C     C_R   0.908053 0.377970 0.107664 -0.206405
H1    H     H_    0.036609 0.336878 0.138813 0.163262
H2    H     H_    0.149023 0.998794 0.446766 0.165219
H3    H     H_    0.752787 0.136717 0.763950 0.378936
H4    H     H_    0.394512 0.760845 0.725191 0.083343
H5    H     H_    0.471043 0.364143 0.427017 0.193174
H6    H     H_    0.526852 0.642587 0.563419 0.241981
H7    H     H_    0.723797 0.452763 0.796831 0.201725
H8    H     H_    0.913642 0.320069 0.941667 0.175305
H9    H     H_    0.580657 0.552942 0.193123 0.161780
H10   H     H_    0.939117 0.653541 0.853691 0.221996
H11   H     H_    0.314207 0.574011 0.137751 0.137495
H12   H     H_    0.038708 0.673719 0.052072 0.163397
N1    N     N_2   0.434800 0.456690 0.470850 -0.185555
N2    N     N_2   0.565200 0.543310 0.529150 -0.147494
O1    O     O_R   0.893060 0.738880 0.507150 -0.542576
O2    O     O_2   0.943365 0.893671 0.711050 -0.289461
O3    O     O_3   0.825774 0.170108 0.714036 -0.571374
O4    O     O_2   0.651793 0.747456 0.751448 -0.523792
O5    O     O_R   0.172250 0.711130 0.488470 -0.635195
O6    O     O_R   0.944700 0.520730 0.667600 -0.565142
O7    O     O_R   0.223890 0.492980 0.648920 -0.640676
O8    O     O_R   0.827750 0.288870 0.511530 -0.576759
O9    O     O_R   0.106940 0.261120 0.492850 -0.635574
O10   O     O_R   0.776110 0.507020 0.351080 -0.641946
O11   O     O_R   0.055300 0.479270 0.332400 -0.627538
O12   O     O_2   0.663417 0.935907 0.584288 -0.289292
S1    S     S_3+6 0.843831 0.006231 0.638370 0.061032
Zn1   Zn    Zn3+2 0.813580 0.518530 0.512470 1.046405
Zn2   Zn    Zn3+2 0.186420 0.481470 0.487530 0.959847

loop_
_geom_bond_atom_site_label_1
_geom_bond_atom_site_label_2
_ccdc_geom_bond_type
N2    Zn1   S    
C2    C4    S    
O11   Zn2   S    
C13   H11   S    
O3    S1    S    
C8    C17   A    
C12   C15   A    
O10   Zn1   S    
C16   C20   A    
C3    C5    D    
C8    C21   A    
C6    O9    A    
C21   H1    S    
O2    S1    D    
C15   C19   A    
C2    C15   A    
C11   C13   A    
C9    C21   A    
C4    O7    A    
O7    Zn2   S    
O5    Zn2   S    
C8    H8    S    
C7    O10   A    
O6    Zn1   S    
C17   C18   A    
C6    O8    A    
C14   H4    S    
C5    C6    S    
N1    N2    D    
C5    S1    S    
N1    Zn2   S    
C10   C11   A    
H3    O3    S    
C2    C10   A    
C7    O11   A    
C12   C16   A    
C11   H12   S    
C18   H7    S    
C12   C13   A    
C18   C19   A    
C4    O6    A    
O9    Zn2   S    
C7    C9    S    
C14   C19   S    
O8    Zn1   S    
C20   H9    S    
C9    C20   A    
C1    O5    A    
H6    N2    S    
C14   O4    D    
C3    H2    S    
C10   H10   S    
H5    N1    S    
O1    Zn1   S    
O12   S1    D    
C1    O1    A    
C16   C17   A    
C1    C3    S    
