data_mof_unit_25399.cif
_audit_creation_date              2012-10-26T17:13:03-0400
_audit_creation_method            fapswitch 2.2
_symmetry_space_group_name_H-M    P1
_symmetry_Int_Tables_number       1
_space_group_crystal_system       triclinic
_cell_length_a                    16.862788
_cell_length_b                    16.830262
_cell_length_c                    16.821607
_cell_angle_alpha                 68.739935
_cell_angle_beta                  69.35318
_cell_angle_gamma                 69.445394
_cell_volume                      4024.66943778

loop_
_atom_site_label
_atom_site_type_symbol
_atom_type_description
_atom_site_fract_x
_atom_site_fract_y
_atom_site_fract_z
_atom_type_partial_charge
C1    C     C_R   0.311228 0.003452 0.431117 -0.016930
C2    C     C_R   0.321311 0.450004 0.958300 -0.018873
C3    C     C_R   0.539382 0.412937 0.994535 -0.007022
C4    C     C_R   0.007344 0.458738 0.587061 -0.005866
C5    C     C_R   0.992543 0.541289 0.412975 -0.005856
C6    C     C_R   0.036015 0.679269 0.551854 -0.002448
C7    C     C_R   0.963914 0.320746 0.448164 -0.002462
C8    C     C_R   0.451935 0.992542 0.450472 0.018250
C9    C     C_R   0.548061 0.007567 0.549498 0.018255
C10   C     C_R   0.981935 0.455222 0.455213 0.022003
C11   C     C_R   0.017952 0.544805 0.544822 0.022014
C12   C     C_R   0.454295 0.455461 0.981870 0.018562
C13   C     C_R   0.545731 0.544564 0.018054 0.018574
C14   C     C_R   0.020819 0.829700 0.567069 0.569640
C15   C     C_R   0.688767 0.996616 0.568875 -0.016945
C16   C     C_R   0.979174 0.170302 0.432933 0.569647
C17   C     C_R   0.828734 0.564921 0.027200 0.559415
C18   C     C_R   0.171266 0.435081 0.972795 0.559427
C19   C     C_R   0.565118 0.027330 0.828576 0.557641
C20   C     C_R   0.434881 0.972684 0.171425 0.557634
C21   C     C_R   0.434378 0.171344 0.973939 0.556523
C22   C     C_R   0.565620 0.828657 0.026063 0.556511
C23   C     C_R   0.980591 0.432503 0.169969 0.564145
C24   C     C_R   0.019400 0.567500 0.830033 0.564140
C25   C     C_R   0.169538 0.981772 0.431701 0.566509
C26   C     C_R   0.967407 0.447458 0.319579 -0.018330
C27   C     C_R   0.830464 0.018233 0.568300 0.566516
C28   C     C_R   0.403310 0.985055 0.401255 -0.009483
C29   C     C_R   0.596687 0.015038 0.598724 -0.009482
C30   C     C_R   0.972677 0.407187 0.407174 -0.003657
C31   C     C_R   0.027236 0.592833 0.592851 -0.003646
C32   C     C_R   0.406317 0.408129 0.970158 -0.010063
C33   C     C_R   0.593695 0.591887 0.029799 -0.010052
C34   C     C_R   0.263709 0.982035 0.389876 -0.006611
C35   C     C_R   0.736298 0.017993 0.610132 -0.006614
C36   C     C_R   0.977407 0.394305 0.265545 -0.003153
C37   C     C_R   0.032533 0.552557 0.680437 -0.018332
C38   C     C_R   0.022564 0.605704 0.734463 -0.003155
C39   C     C_R   0.397130 0.269238 0.961166 -0.008641
C40   C     C_R   0.602867 0.730766 0.038828 -0.008643
C41   C     C_R   0.602823 0.039241 0.730954 -0.006929
C42   C     C_R   0.397187 0.960800 0.269049 -0.006922
C43   C     C_R   0.730975 0.600834 0.041770 -0.006610
C44   C     C_R   0.269026 0.399173 0.958216 -0.006613
C45   C     C_R   0.024426 0.733970 0.605254 0.007152
C46   C     C_R   0.975539 0.266038 0.394755 0.007150
C47   C     C_R   0.460998 0.071437 0.697823 0.119482
C48   C     C_R   0.446336 0.320903 0.964659 -0.022939
C49   C     C_R   0.539004 0.928640 0.302167 0.119479
C50   C     C_R   0.059317 0.705556 0.458729 0.135063
C51   C     C_R   0.940626 0.294439 0.541289 0.135030
C52   C     C_R   0.704657 0.456779 0.062513 0.121617
C53   C     C_R   0.295351 0.543239 0.937441 0.121602
C54   C     C_R   0.270112 0.041510 0.502498 0.118557
C55   C     C_R   0.729878 0.958536 0.497510 0.118565
C56   C     C_R   0.537982 0.292282 0.950803 0.125013
C57   C     C_R   0.462016 0.707706 0.049191 0.125068
C58   C     C_R   0.949579 0.540086 0.290975 0.125509
C59   C     C_R   0.553665 0.679104 0.035321 -0.022927
C60   C     C_R   0.050363 0.459928 0.709034 0.125519
C61   C     C_R   0.307541 0.960489 0.307788 0.078493
C62   C     C_R   0.692493 0.039501 0.692246 0.078561
C63   C     C_R   0.995750 0.301750 0.301892 0.058556
C64   C     C_R   0.004227 0.698260 0.698117 0.058563
C65   C     C_R   0.309087 0.310070 0.953887 0.080811
C66   C     C_R   0.690911 0.689935 0.046107 0.080812
C67   C     C_R   0.682481 0.967210 0.439892 0.010503
C68   C     C_R   0.317518 0.032856 0.560101 0.010497
C69   C     C_R   0.021253 0.415940 0.671654 -0.001589
C70   C     C_R   0.553072 0.040388 0.677553 -0.021009
C71   C     C_R   0.978666 0.584079 0.328370 -0.001574
C72   C     C_R   0.419438 0.671757 0.017365 -0.001751
C73   C     C_R   0.580593 0.328267 0.982560 -0.001749
C74   C     C_R   0.587634 0.948941 0.342187 0.002036
C75   C     C_R   0.412367 0.051145 0.657796 0.002046
C76   C     C_R   0.334043 0.588368 0.964505 -0.000211
C77   C     C_R   0.665980 0.411658 0.035424 -0.000221
C78   C     C_R   0.966565 0.332658 0.587661 0.012075
C79   C     C_R   0.033337 0.667360 0.412373 0.012091
C80   C     C_R   0.724352 0.957975 0.354086 0.111274
C81   C     C_R   0.446932 0.959696 0.322431 -0.021000
C82   C     C_R   0.275659 0.042057 0.645922 0.111279
C83   C     C_R   0.005681 0.331542 0.715830 0.104334
C84   C     C_R   0.994263 0.668467 0.284187 0.104346
C85   C     C_R   0.336148 0.716413 0.000909 0.103096
C86   C     C_R   0.663871 0.283598 0.999048 0.103091
C87   C     C_R   0.678120 0.945092 0.306215 0.114490
C88   C     C_R   0.321889 0.054957 0.693786 0.114480
C89   C     C_R   0.294332 0.675966 0.972132 0.104684
C90   C     C_R   0.705689 0.324059 0.027807 0.104669
C91   C     C_R   0.973401 0.292205 0.675944 0.117412
C92   C     C_R   0.678696 0.550011 0.041665 -0.018877
C93   C     C_R   0.026542 0.707797 0.324080 0.117428
C94   C     C_R   0.543450 0.976763 0.419833 -0.008813
C95   C     C_R   0.456547 0.023344 0.580138 -0.008811
C96   C     C_R   0.986620 0.414819 0.543139 -0.001914
C97   C     C_R   0.013263 0.585208 0.456899 -0.001895
C98   C     C_R   0.415724 0.543480 0.984964 -0.007293
C99   C     C_R   0.584305 0.456548 0.014952 -0.007302
C100  C     C_R   0.591158 0.984750 0.469262 -0.003985
C101  C     C_R   0.408839 0.015351 0.530712 -0.003986
C102  C     C_R   0.460650 0.587091 0.005378 -0.007004
Cu1   Cu    Cu3+1 0.995180 0.995180 0.424630 1.151881
Cu2   Cu    Cu3+1 0.004820 0.004820 0.575370 1.151907
Cu3   Cu    Cu3+1 0.995180 0.424630 0.995180 1.139055
Cu4   Cu    Cu3+1 0.004820 0.575370 0.004820 1.139061
Cu5   Cu    Cu3+1 0.424630 0.995180 0.995180 1.139589
Cu6   Cu    Cu3+1 0.575370 0.004820 0.004820 1.139619
I1    I     I_    0.242366 0.919461 0.243458 -0.100074
I2    I     I_    0.940366 0.169887 0.748783 -0.115680
I3    I     I_    0.834092 0.255145 0.046684 -0.145919
I4    I     I_    0.165934 0.744898 0.953257 -0.145884
I5    I     I_    0.154087 0.006594 0.710098 -0.147638
I6    I     I_    0.845979 0.993310 0.289945 -0.147665
I7    I     I_    0.722070 0.150997 0.989131 -0.138855
I8    I     I_    0.277889 0.848928 0.011021 -0.138820
I9    I     I_    0.976025 0.732952 0.154312 -0.130923
I10   I     I_    0.023979 0.267042 0.845686 -0.130936
I11   I     I_    0.413462 0.196576 0.725110 -0.193134
I12   I     I_    0.757876 0.080141 0.756801 -0.099864
I13   I     I_    0.586536 0.803483 0.274913 -0.193120
I14   I     I_    0.189641 0.719005 0.410483 -0.202370
I15   I     I_    0.810391 0.280637 0.589619 -0.202423
I16   I     I_    0.740177 0.395715 0.185900 -0.212982
I17   I     I_    0.259788 0.604295 0.814077 -0.212987
I18   I     I_    0.175043 0.164613 0.480263 -0.318472
I19   I     I_    0.824891 0.835401 0.519803 -0.318559
I20   I     I_    0.601086 0.277493 0.821192 -0.188845
I21   I     I_    0.398940 0.722079 0.178896 -0.188853
I22   I     I_    0.819878 0.597160 0.276183 -0.183582
I23   I     I_    0.082837 0.217562 0.217875 -0.202960
I24   I     I_    0.180074 0.402849 0.723805 -0.183530
I25   I     I_    0.917172 0.782454 0.782139 -0.202902
I26   I     I_    0.239174 0.240235 0.925072 -0.097200
I27   I     I_    0.760821 0.759766 0.074930 -0.097186
I28   I     I_    0.258206 0.062162 0.826014 -0.129248
I29   I     I_    0.741826 0.937831 0.174006 -0.129221
I30   I     I_    0.059723 0.830034 0.251225 -0.115683
O1    O     O_R   0.124540 0.978640 0.385460 -0.471118
O2    O     O_R   0.124540 0.385460 0.978640 -0.468920
O3    O     O_R   0.021360 0.875460 0.614540 -0.476014
O4    O     O_R   0.978640 0.124540 0.385460 -0.476023
O5    O     O_R   0.013780 0.867370 0.487190 -0.487368
O6    O     O_R   0.986220 0.132630 0.512810 -0.487346
O7    O     O_R   0.867370 0.487190 0.013780 -0.501889
O8    O     O_R   0.132630 0.512810 0.986220 -0.501883
O9    O     O_R   0.487190 0.013780 0.867370 -0.499895
O10   O     O_R   0.512810 0.986220 0.132630 -0.499890
O11   O     O_R   0.512810 0.132630 0.986220 -0.499721
O12   O     O_R   0.875460 0.021360 0.614540 -0.471126
O13   O     O_R   0.487190 0.867370 0.013780 -0.499750
O14   O     O_R   0.986220 0.512810 0.132630 -0.503682
O15   O     O_R   0.013780 0.487190 0.867370 -0.503685
O16   O     O_R   0.132630 0.986220 0.512810 -0.492706
O17   O     O_R   0.867370 0.013780 0.487190 -0.492713
O18   O     O_R   0.978640 0.385460 0.124540 -0.465840
O19   O     O_R   0.021360 0.614540 0.875460 -0.465844
O20   O     O_R   0.385460 0.124540 0.978640 -0.472268
O21   O     O_R   0.614540 0.875460 0.021360 -0.472260
O22   O     O_R   0.614540 0.021360 0.875460 -0.472188
O23   O     O_R   0.385460 0.978640 0.124540 -0.472192
O24   O     O_R   0.875460 0.614540 0.021360 -0.468928

loop_
_geom_bond_atom_site_label_1
_geom_bond_atom_site_label_2
_ccdc_geom_bond_type
Cu3   O15   S    
C23   O14   A    
C6    C45   A    
C39   C65   A    
C21   O20   A    
C74   C94   A    
C17   O7    A    
C50   I14   S    
C61   I1    S    
C50   C79   A    
C60   I24   S    
C72   C85   A    
C75   C95   A    
Cu6   O21   S    
C54   I18   S    
C89   I4    S    
C19   O22   A    
C90   I3    S    
C91   I2    S    
C57   I21   S    
C16   O6    A    
C79   C93   A    
C80   C87   A    
C18   C44   S    
C58   C71   A    
C57   C59   A    
C54   C68   A    
C22   O21   A    
C76   C98   A    
C51   I15   S    
Cu6   O11   S    
C2    C32   A    
Cu2   O12   S    
C93   I30   S    
C4    C96   A    
Cu5   O23   S    
C78   C96   A    
C84   I9    S    
C1    C28   A    
C24   C38   S    
Cu5   Cu6   S    
C20   O10   A    
C3    C12   A    
C10   C96   A    
C74   C87   A    
C36   C63   A    
C8    C101  A    
C9    C95   A    
C12   C98   A    
C65   I26   S    
C9    C29   A    
C25   C34   S    
Cu5   O13   S    
C47   I11   S    
C6    C31   A    
C28   C81   A    
C14   O3    A    
C11   C31   A    
C33   C59   A    
C7    C30   A    
C40   C66   A    
C23   O18   A    
C12   C32   A    
C32   C48   A    
C44   C65   A    
C42   C81   A    
C41   C62   A    
C87   I29   S    
C15   C35   A    
C4    C69   A    
C1    C34   A    
C15   C29   A    
C14   C45   S    
C38   C64   A    
C27   O17   A    
C49   I13   S    
C77   C90   A    
Cu4   O14   S    
C7    C46   A    
C8    C94   A    
C68   C101  A    
C88   I28   S    
C86   C90   A    
C33   C92   A    
C2    C44   A    
C85   C89   A    
C22   C40   S    
C27   C35   S    
C98   C102  A    
C34   C61   A    
C19   O9    A    
C31   C37   A    
C86   I7    S    
C15   C55   A    
C13   C99   A    
C16   O4    A    
C1    C54   A    
C17   C43   S    
C47   C70   A    
C13   C33   A    
C37   C38   A    
C69   C83   A    
Cu1   O1    S    
Cu5   O9    S    
C10   C30   A    
C55   C67   A    
C21   C39   S    
C94   C100  A    
Cu3   O7    S    
C71   C84   A    
Cu2   O6    S    
C21   O11   A    
C49   C74   A    
C6    C50   A    
C4    C11   A    
C18   O2    A    
C26   C58   A    
C42   C61   A    
C53   I17   S    
C67   C100  A    
Cu1   O17   S    
C5    C97   A    
C26   C30   A    
C27   O12   A    
C63   I23   S    
C8    C28   A    
C52   C92   A    
C53   C76   A    
C22   O13   A    
C16   C46   S    
C52   C77   A    
Cu1   O4    S    
Cu5   O20   S    
C24   O15   A    
C83   I10   S    
C29   C70   A    
C26   C36   A    
C48   C56   A    
C64   I25   S    
C56   C73   A    
C25   O1    A    
C25   O16   A    
C24   O19   A    
C62   I12   S    
C79   C97   A    
C85   I8    S    
C67   C80   A    
C82   I5    S    
C80   I6    S    
C18   O8    A    
C2    C53   A    
Cu1   O5    S    
C55   I19   S    
C20   C42   S    
Cu6   O22   S    
Cu4   O24   S    
C78   C91   A    
C9    C100  A    
Cu4   O19   S    
C83   C91   A    
Cu3   Cu4   S    
C76   C89   A    
C45   C64   A    
C95   C101  A    
C43   C92   A    
Cu4   O8    S    
C46   C63   A    
C11   C97   A    
C68   C82   A    
C14   O5    A    
C51   C78   A    
C7    C51   A    
C5    C10   A    
C5    C71   A    
Cu3   O2    S    
C52   I16   S    
C72   C102  A    
C60   C69   A    
C58   I22   S    
C43   C66   A    
C82   C88   A    
C20   O23   A    
C77   C99   A    
C35   C62   A    
C49   C81   A    
C84   C93   A    
C56   I20   S    
C57   C72   A    
C3    C73   A    
C73   C86   A    
C37   C60   A    
C17   O24   A    
C47   C75   A    
C66   I27   S    
C3    C99   A    
C75   C88   A    
Cu3   O18   S    
C23   C36   S    
Cu1   Cu2   S    
C40   C59   A    
Cu2   O3    S    
C41   C70   A    
Cu2   O16   S    
C13   C102  A    
C19   C41   S    
C39   C48   A    
Cu6   O10   S    
