data_mof_unit_62250.cif
_audit_creation_date              2012-12-10T20:43:39-0500
_audit_creation_method            fapswitch 2.2
_symmetry_space_group_name_H-M    P1
_symmetry_Int_Tables_number       1
_space_group_crystal_system       triclinic
_cell_length_a                    10.828369
_cell_length_b                    19.223815
_cell_length_c                    19.219926
_cell_angle_alpha                 94.576404
_cell_angle_beta                  91.857162
_cell_angle_gamma                 96.839432
_cell_volume                      3956.18158636

loop_
_atom_site_label
_atom_site_type_symbol
_atom_type_description
_atom_site_fract_x
_atom_site_fract_y
_atom_site_fract_z
_atom_type_partial_charge
C1    C     C_R   0.513806 0.690193 0.508141 0.790512
C2    C     C_R   0.522164 0.767156 0.510734 0.002248
C3    C     C_R   0.629019 0.805840 0.487525 -0.211135
C4    C     C_R   0.485276 0.309792 0.492513 0.847053
C5    C     C_R   0.636737 0.878612 0.487514 -0.192957
C6    C     C_R   0.480145 0.507213 0.765379 -0.002650
C7    C     C_R   0.550015 0.463864 0.801961 -0.217479
C8    C     C_R   0.544916 0.463762 0.874152 -0.172770
C9    C     C_R   0.469418 0.507365 0.911482 0.313806
C10   C     C_R   0.399138 0.550170 0.874852 -0.191987
C11   C     C_R   0.404112 0.550179 0.802352 -0.211260
C12   C     C_R   0.579894 0.202178 0.513093 -0.275207
C13   C     C_R   0.564209 0.547305 0.125833 0.199609
C14   C     C_R   0.551178 0.553742 0.199232 0.143874
C15   C     C_R   0.529041 0.481149 0.087967 0.271660
C16   C     C_R   0.511637 0.493971 0.310821 0.811375
C17   C     C_R   0.516298 0.492246 0.234077 -0.056302
C18   C     C_R   0.487201 0.427186 0.195281 -0.258064
C19   C     C_R   0.493078 0.421886 0.123113 -0.232597
C20   C     C_R   0.486762 0.506639 0.688995 0.796134
C21   C     C_R   0.835292 0.515401 0.515151 0.864342
C22   C     C_R   0.163954 0.485044 0.485079 0.895575
C23   C     C_R   0.573204 0.129834 0.516476 -0.154192
C24   C     C_2   0.029027 0.479054 0.479430 -0.327513
C25   C     C_2   0.968655 0.521451 0.520607 -0.306218
C26   C     C_R   0.474876 0.232812 0.492330 -0.095687
C27   C     C_3   0.571053 0.625426 0.239897 -0.847917
C28   C     C_3   0.621460 0.609339 0.088951 -0.890598
C29   C     C_R   0.460251 0.086406 0.499411 0.256414
C30   C     C_R   0.355210 0.116889 0.479381 -0.232812
C31   C     C_R   0.361362 0.189458 0.475320 0.369939
C32   C     C_R   0.430680 0.875375 0.533787 -0.165275
C33   C     C_R   0.423714 0.802502 0.534849 -0.227440
C34   C     C_R   0.537252 0.913831 0.509091 0.321260
Cl1   Cl    Cl    0.222642 0.223432 0.452801 -0.599575
H1    H     H_    0.978500 0.439917 0.441589 0.157572
H2    H     H_    0.340643 0.773744 0.553242 0.163968
H3    H     H_    0.353206 0.901463 0.552241 0.152584
H4    H     H_    0.267809 0.083825 0.467049 0.177315
H5    H     H_    0.706845 0.779845 0.469362 0.166548
H6    H     H_    0.656072 0.108236 0.533194 0.168133
H7    H     H_    0.719656 0.907651 0.469249 0.148029
H8    H     H_    0.495758 0.630444 0.277187 0.231904
H9    H     H_    0.662768 0.632641 0.268730 0.259893
H10   H     H_    0.567654 0.669411 0.206301 0.237043
H11   H     H_    0.654198 0.593464 0.036648 0.254121
H12   H     H_    0.667701 0.234378 0.526799 0.186981
H13   H     H_    0.552523 0.647040 0.082973 0.243082
H14   H     H_    0.705200 0.636067 0.119297 0.242252
H15   H     H_    0.341080 0.584127 0.902776 0.145678
H16   H     H_    0.349076 0.584009 0.775390 0.167481
H17   H     H_    0.460406 0.379893 0.221036 0.187033
H18   H     H_    0.600959 0.429963 0.900427 0.155922
H19   H     H_    0.468808 0.371159 0.094109 0.167808
H20   H     H_    0.609155 0.429961 0.774860 0.173426
H21   H     H_    0.016894 0.561151 0.558609 0.160689
N1    N     N_2   0.447751 0.012394 0.502925 -0.185625
N2    N     N_2   0.548993 0.987698 0.505797 -0.194517
N3    N     N_2   0.464887 0.511696 0.985501 -0.181239
N4    N     N_2   0.530944 0.472480 0.014325 -0.199288
O1    O     O_3   0.500000 0.500000 0.500000 -0.490257
O2    O     O_R   0.783160 0.551820 0.473170 -0.637392
O3    O     O_R   0.222430 0.530340 0.530340 -0.646133
O4    O     O_R   0.771990 0.472690 0.551320 -0.630974
O5    O     O_R   0.222420 0.445150 0.445160 -0.618841
O6    O     O_R   0.435070 0.449940 0.339290 -0.640347
O7    O     O_R   0.419380 0.543640 0.654290 -0.645384
O8    O     O_R   0.586230 0.658380 0.469080 -0.649700
O9    O     O_R   0.559310 0.348040 0.537340 -0.650625
O10   O     O_R   0.435110 0.654980 0.544320 -0.645135
O11   O     O_R   0.419350 0.338590 0.449260 -0.587228
O12   O     O_R   0.586210 0.538520 0.349230 -0.640336
O13   O     O_R   0.559330 0.467910 0.657200 -0.645688
Zn1   Zn    Zn3+2 0.396020 0.434560 0.434560 1.022836
Zn2   Zn    Zn3+2 0.611960 0.561120 0.448760 0.959606
Zn3   Zn    Zn3+2 0.595990 0.448060 0.560420 0.978143
Zn4   Zn    Zn3+2 0.396040 0.556260 0.556260 0.966496

loop_
_geom_bond_atom_site_label_1
_geom_bond_atom_site_label_2
_ccdc_geom_bond_type
C5    H7    S    
C15   N4    S    
C20   O7    A    
C16   O12   A    
C25   H21   S    
C7    H20   S    
C18   H17   S    
C7    C8    A    
O1    Zn2   S    
O8    Zn2   S    
C15   C19   A    
C12   C23   A    
C28   H11   S    
C24   H1    S    
C23   C29   A    
C18   C19   A    
O12   Zn2   S    
C30   C31   A    
O6    Zn1   S    
C1    O8    A    
O9    Zn3   S    
C1    C2    S    
C21   O4    A    
C22   O3    A    
C27   H9    S    
O1    Zn4   S    
C8    C9    A    
O7    Zn4   S    
C20   O13   A    
C13   C28   S    
C32   H3    S    
C14   C27   S    
C9    C10   A    
C27   H10   S    
N3    N4    D    
C13   C14   A    
O10   Zn4   S    
C14   C17   A    
C12   H12   S    
C4    O9    A    
O1    Zn3   S    
C24   C25   D    
C6    C11   A    
C16   C17   S    
C33   H2    S    
O5    Zn1   S    
C12   C26   A    
C9    N3    S    
C32   C34   A    
C22   O5    A    
C29   C30   A    
C28   H14   S    
C5    C34   A    
C17   C18   A    
O4    Zn3   S    
C21   O2    A    
C19   H19   S    
C29   N1    S    
C3    H5    S    
C13   C15   A    
O13   Zn3   S    
C22   C24   S    
O2    Zn2   S    
C16   O6    A    
C10   H15   S    
C2    C33   A    
O3    Zn4   S    
C21   C25   S    
C28   H13   S    
C3    C5    A    
C8    H18   S    
O11   Zn1   S    
C4    C26   S    
C6    C7    A    
O1    Zn1   S    
C6    C20   S    
C1    O10   A    
C23   H6    S    
C32   C33   A    
C2    C3    A    
N1    N2    D    
C30   H4    S    
C31   Cl1   S    
C11   H16   S    
C10   C11   A    
C27   H8    S    
C26   C31   A    
C34   N2    S    
C4    O11   A    
