data_mof_unit_56879.cif
_audit_creation_date              2012-12-10T17:56:45-0500
_audit_creation_method            fapswitch 2.2
_symmetry_space_group_name_H-M    P1
_symmetry_Int_Tables_number       1
_space_group_crystal_system       triclinic
_cell_length_a                    10.776774
_cell_length_b                    9.608619
_cell_length_c                    10.915188
_cell_angle_alpha                 89.395767
_cell_angle_beta                  90.722234
_cell_angle_gamma                 91.642852
_cell_volume                      1129.6537964

loop_
_atom_site_label
_atom_site_type_symbol
_atom_type_description
_atom_site_fract_x
_atom_site_fract_y
_atom_site_fract_z
_atom_type_partial_charge
C1    C     C_R   0.262912 0.497957 0.503282 0.848590
C2    C     C_R   0.737787 0.501802 0.499361 0.815114
C3    C     C_R   0.938468 0.555996 0.396787 0.157116
C4    C     C_R   0.068043 0.544297 0.394417 0.225081
C5    C     C_R   0.403715 0.071199 0.447423 0.385192
C6    C     C_R   0.594321 0.074141 0.555398 0.420088
C7    C     C_R   0.410706 0.922212 0.435977 0.400095
C8    C     C_R   0.583958 0.925752 0.570146 0.388825
C9    C     C_R   0.502369 0.502161 0.261544 0.890799
C10   C     C_R   0.490676 0.498828 0.736784 0.863360
C11   C     C_R   0.530179 0.772728 0.092874 0.576920
C12   C     C_R   0.387044 0.731707 0.875441 0.602044
C13   C     C_R   0.492593 0.886252 0.017657 -0.366672
C14   C     C_R   0.414610 0.866592 0.917281 -0.290833
C15   C     C_R   0.450103 0.620773 0.932427 -0.128076
C16   C     C_R   0.494928 0.634366 0.054178 -0.129755
C17   C     C_R   0.499850 0.506921 0.125768 -0.263247
C18   C     C_R   0.474296 0.496870 0.869905 -0.239429
C19   C     C_R   0.482376 0.378433 0.064107 0.382364
C20   C     C_R   0.494715 0.374845 0.937444 0.366231
C21   C     C_R   0.063758 0.445088 0.600831 -0.277390
C22   C     C_R   0.935241 0.449518 0.600423 -0.261055
C23   C     C_R   0.872432 0.505185 0.499225 -0.081461
C24   C     C_R   0.129417 0.493653 0.498865 -0.064599
Cu1   Cu    Cu3+1 0.500000 0.640660 0.500000 1.063094
Cu2   Cu    Cu3+1 0.500000 0.359340 0.500000 1.029724
H1    H     H_    0.519479 0.992711 0.036435 0.207798
H2    H     H_    0.381565 0.958153 0.870288 0.174671
H3    H     H_    0.112182 0.405104 0.680783 0.158236
H4    H     H_    0.884515 0.410298 0.679279 0.160516
N1    N     N_R   0.500000 0.852070 0.500000 -0.265266
N2    N     N_R   0.500000 0.147940 0.500000 -0.269653
O1    O     O_R   0.319640 0.618740 0.499990 -0.503604
O2    O     O_R   0.680360 0.618740 0.500010 -0.569182
O3    O     O_R   0.319620 0.381170 0.499990 -0.563698
O4    O     O_R   0.680380 0.381170 0.500010 -0.551908
O5    O     O_R   0.500000 0.618810 0.319650 -0.503875
O6    O     O_R   0.500000 0.618810 0.680350 -0.512623
O7    O     O_R   0.499970 0.381240 0.319640 -0.532864
O8    O     O_R   0.500030 0.381240 0.680360 -0.536742
O9    O     O_3   0.449459 0.256633 0.126189 -0.558473
C25   C     C_3   0.328313 0.211641 0.088619 -0.300479
H5    H     H_    0.333752 0.118963 0.030098 0.178998
H6    H     H_    0.273785 0.290800 0.037398 0.135101
H7    H     H_    0.273743 0.182188 0.170400 0.200692
O10   O     O_3   0.507022 0.248029 0.880585 -0.560778
C26   C     C_3   0.632181 0.209927 0.891011 -0.249072
H8    H     H_    0.662035 0.198099 0.988473 0.133777
H9    H     H_    0.694437 0.286554 0.842952 0.158576
H10   H     H_    0.642089 0.107576 0.846714 0.221427
O11   O     O_3   0.610879 0.791015 0.193263 -0.542713
C27   C     C_3   0.636637 0.931990 0.224516 -0.318758
H11   H     H_    0.552620 0.993461 0.234074 0.160618
H12   H     H_    0.701145 0.982205 0.157642 0.146343
H13   H     H_    0.680447 0.936548 0.316086 0.149879
O12   O     O_3   0.301604 0.699291 0.781378 -0.585641
C28   C     C_3   0.232813 0.812903 0.738305 -0.313269
H14   H     H_    0.293567 0.889399 0.688701 0.162082
H15   H     H_    0.182343 0.862312 0.813956 0.131241
H16   H     H_    0.162005 0.773635 0.671538 0.194139
N3    N     N_2   0.875588 0.622218 0.298353 -0.417252
H17   H     H_    0.897694 0.584525 0.213484 0.246883
C29   C     C_3   0.886334 0.772334 0.304647 -0.662775
H18   H     H_    0.856643 0.818714 0.216198 0.241222
H19   H     H_    0.983035 0.809916 0.323010 0.190228
H20   H     H_    0.829515 0.808105 0.380898 0.237401
N4    N     N_2   0.137448 0.583050 0.288164 -0.416491
H21   H     H_    0.102553 0.662070 0.235114 0.258945
C30   C     C_3   0.171523 0.467404 0.213788 -0.748239
H22   H     H_    0.227675 0.393739 0.268246 0.274018
H23   H     H_    0.227838 0.506876 0.135686 0.225758
H24   H     H_    0.087098 0.412244 0.177272 0.209922
O13   O     O_3   0.300742 0.138675 0.403403 -0.543280
C31   C     C_3   0.200405 0.110512 0.483150 -0.329589
H25   H     H_    0.121233 0.174492 0.453327 0.179665
H26   H     H_    0.168036 0.999856 0.479764 0.166301
H27   H     H_    0.224378 0.139084 0.579413 0.161522
O14   O     O_3   0.699963 0.142896 0.597780 -0.545251
C32   C     C_3   0.794242 0.128012 0.509410 -0.350023
H28   H     H_    0.880493 0.181089 0.542706 0.192251
H29   H     H_    0.817311 0.018588 0.493662 0.100995
H30   H     H_    0.768254 0.174167 0.419094 0.179800
O15   O     O_3   0.318313 0.842994 0.377282 -0.525894
C33   C     C_3   0.287331 0.893434 0.259264 -0.250339
H31   H     H_    0.354399 0.970704 0.221577 0.157756
H32   H     H_    0.193830 0.938689 0.260393 0.154884
H33   H     H_    0.283544 0.804791 0.195099 0.173803
O16   O     O_3   0.627690 0.861649 0.676276 -0.538591
C34   C     C_3   0.757766 0.853186 0.680466 -0.262637
H34   H     H_    0.781969 0.772273 0.749252 0.165059
H35   H     H_    0.801707 0.952062 0.712832 0.175638
H36   H     H_    0.796850 0.819614 0.592598 0.150693

loop_
_geom_bond_atom_site_label_1
_geom_bond_atom_site_label_2
_ccdc_geom_bond_type
Cu1   N1    S    
C15   C18   A    
C7    O15   S    
C29   H19   S    
Cu2   N2    S    
O9    C25   S    
C6    N2    A    
C19   C20   A    
C33   H33   S    
C1    O1    A    
C26   H9    S    
C31   H26   S    
C33   H32   S    
C4    C24   A    
Cu2   O7    S    
C6    O14   S    
C2    O4    A    
C15   C16   A    
C9    O7    A    
O12   C28   S    
C10   O8    A    
O13   C31   S    
N3    C29   S    
Cu1   O5    S    
C3    C23   A    
O15   C33   S    
C16   C17   A    
C31   H27   S    
C34   H35   S    
C27   H13   S    
Cu1   O2    S    
C5    N2    A    
C2    O2    A    
C29   H20   S    
C30   H23   S    
C21   C22   A    
N3    H17   S    
C25   H6    S    
C27   H12   S    
C26   H10   S    
C3    N3    S    
C7    N1    A    
C31   H25   S    
N4    H21   S    
C33   H31   S    
C5    C7    A    
O14   C32   S    
C28   H16   S    
C6    C8    A    
Cu1   Cu2   S    
C21   H3    S    
O11   C27   S    
N4    C30   S    
C25   H7    S    
C30   H24   S    
Cu1   O6    S    
C4    N4    S    
C11   C16   A    
C26   H8    S    
C12   C15   A    
C9    O5    A    
C34   H36   S    
C12   O12   S    
C9    C17   S    
C12   C14   A    
C32   H28   S    
C28   H15   S    
C25   H5    S    
C3    C4    A    
C27   H11   S    
C1    O3    A    
C32   H29   S    
Cu2   O4    S    
O10   C26   S    
C22   H4    S    
C8    N1    A    
C32   H30   S    
C10   O6    A    
C14   H2    S    
C11   C13   A    
Cu2   O8    S    
C28   H14   S    
C10   C18   S    
C17   C19   A    
C18   C20   A    
C5    O13   S    
C30   H22   S    
C11   O11   S    
C29   H18   S    
Cu2   O3    S    
O16   C34   S    
C1    C24   S    
C21   C24   A    
C2    C23   S    
C22   C23   A    
C13   H1    S    
C8    O16   S    
C34   H34   S    
C13   C14   A    
C20   O10   S    
C19   O9    S    
Cu1   O1    S    
