data_mof_unit_67743.cif
_audit_creation_date              2012-12-10T16:47:15-0500
_audit_creation_method            fapswitch 2.2
_symmetry_space_group_name_H-M    P1
_symmetry_Int_Tables_number       1
_space_group_crystal_system       triclinic
_cell_length_a                    12.185089
_cell_length_b                    13.338529
_cell_length_c                    8.11714
_cell_angle_alpha                 88.178288
_cell_angle_beta                  95.265119
_cell_angle_gamma                 90.677212
_cell_volume                      1313.00529598

loop_
_atom_site_label
_atom_site_type_symbol
_atom_type_description
_atom_site_fract_x
_atom_site_fract_y
_atom_site_fract_z
_atom_type_partial_charge
C1    C     C_R   0.360909 0.847341 0.459542 0.850168
C2    C     C_2   0.720391 0.767547 0.566724 -0.250284
C3    C     C_2   0.699672 0.248102 0.548565 -0.227063
C4    C     C_2   0.301843 0.749528 0.446296 -0.221365
C5    C     C_2   0.784090 0.738183 0.443086 -0.232626
C6    C     C_2   0.225287 0.270175 0.565494 -0.247837
C7    C     C_2   0.232283 0.720846 0.561976 -0.261638
C8    C     C_2   0.775063 0.271694 0.439992 -0.253795
C9    C     C_R   0.816022 0.807947 0.311260 0.144359
C10   C     C_R   0.928290 0.831006 0.313947 -0.133232
C11   C     C_R   0.971771 0.862631 0.170528 -0.163835
C12   C     C_R   0.640939 0.150951 0.540501 0.872821
C13   C     C_R   0.901370 0.886841 0.028765 -0.185504
C14   C     C_R   0.787898 0.879422 0.033784 -0.157175
C15   C     C_R   0.745847 0.832026 0.168716 -0.014102
C16   C     C_R   0.223245 0.215822 0.720457 0.185579
C17   C     C_R   0.314430 0.218552 0.836036 -0.100693
C18   C     C_R   0.317107 0.154476 0.971688 -0.115433
C19   C     C_R   0.224933 0.095227 0.002464 -0.100455
C20   C     C_R   0.129764 0.100710 0.892851 -0.155195
C21   C     C_R   0.130819 0.156578 0.747055 -0.135564
C22   C     C_R   0.238238 0.763988 0.722778 0.204929
C23   C     C_R   0.646185 0.853656 0.544746 0.853173
C24   C     C_R   0.157460 0.830043 0.757199 -0.090571
C25   C     C_R   0.162508 0.867891 0.912335 -0.169663
C26   C     C_R   0.247783 0.844502 0.030886 -0.172266
C27   C     C_R   0.334458 0.785432 0.990620 -0.120717
C28   C     C_R   0.324719 0.738027 0.840827 -0.118971
C29   C     C_R   0.788228 0.210675 0.299165 0.193141
C30   C     C_R   0.725011 0.231599 0.149909 -0.099127
C31   C     C_R   0.740900 0.175932 0.013124 -0.210089
C32   C     C_R   0.824104 0.105432 0.021664 -0.162118
C33   C     C_R   0.883333 0.082757 0.174459 -0.110069
C34   C     C_R   0.355486 0.148147 0.456139 0.859538
C35   C     C_R   0.860516 0.130704 0.315692 -0.155339
C36   C     C_R   0.219569 0.243215 0.271979 0.164280
C37   C     C_R   0.259792 0.314682 0.163244 -0.107221
C38   C     C_R   0.192301 0.344917 0.023136 -0.111399
C39   C     C_R   0.083826 0.309778 0.001527 -0.051863
C40   C     C_R   0.041465 0.251873 0.121025 -0.111112
C41   C     C_R   0.110186 0.209343 0.248516 -0.128637
C42   C     C_R   0.720737 0.716697 0.731933 0.148905
C43   C     C_R   0.818089 0.712952 0.835836 -0.061575
C44   C     C_R   0.821646 0.661537 0.985986 -0.079358
C45   C     C_R   0.851756 0.355633 0.457070 0.878767
C46   C     C_R   0.724982 0.623681 0.045387 -0.164844
C47   C     C_R   0.624748 0.644154 0.955613 -0.214344
C48   C     C_R   0.622716 0.687189 0.798058 -0.103601
C49   C     C_R   0.639239 0.328577 0.621033 0.124606
C50   C     C_R   0.534829 0.355073 0.544808 -0.153256
C51   C     C_R   0.466426 0.417491 0.623584 -0.135057
C52   C     C_R   0.500566 0.451265 0.780660 -0.151637
C53   C     C_R   0.604299 0.424866 0.856561 -0.146338
C54   C     C_R   0.675288 0.367671 0.774300 -0.107993
C55   C     C_R   0.354720 0.670994 0.353720 0.105906
C56   C     C_R   0.149299 0.642742 0.542713 0.878827
C57   C     C_R   0.300587 0.621066 0.220041 -0.058602
C58   C     C_R   0.353665 0.545391 0.145125 -0.190137
C59   C     C_R   0.458024 0.513648 0.208749 -0.188076
C60   C     C_R   0.516183 0.568006 0.331624 -0.131355
C61   C     C_R   0.465629 0.648085 0.398846 -0.145211
C62   C     C_R   0.145489 0.352896 0.544331 0.862820
C63   C     C_R   0.853441 0.646896 0.456709 0.856248
C64   C     C_2   0.273684 0.229117 0.436143 -0.233853
H1    H     H_    0.615379 0.012969 0.008096 0.204301
H2    H     H_    0.385467 0.265140 0.815929 0.140878
H3    H     H_    0.390650 0.156472 0.054271 0.176605
H4    H     H_    0.224940 0.050822 0.116135 0.122635
H5    H     H_    0.053243 0.066808 0.923310 0.109170
H6    H     H_    0.058319 0.157777 0.659169 0.097701
H7    H     H_    0.090759 0.851015 0.665862 0.086342
H8    H     H_    0.101626 0.917523 0.939253 0.123910
H9    H     H_    0.245959 0.875951 0.150190 0.151616
H10   H     H_    0.406100 0.772329 0.076820 0.170452
H11   H     H_    0.383563 0.682437 0.815290 0.096665
H12   H     H_    0.387101 0.979012 0.991654 0.211317
H13   H     H_    0.663572 0.289938 0.141049 0.105651
H14   H     H_    0.691684 0.190102 0.899817 0.184165
H15   H     H_    0.844847 0.072262 0.908990 0.129393
H16   H     H_    0.958694 0.042201 0.181057 0.140802
H17   H     H_    0.907616 0.113717 0.432768 0.093244
H18   H     H_    0.343446 0.341638 0.183533 0.112015
H19   H     H_    0.224133 0.392654 0.928910 0.123296
H20   H     H_    0.025913 0.331507 0.900300 0.186035
H21   H     H_    0.954470 0.247134 0.113230 0.166971
H22   H     H_    0.076881 0.162012 0.342362 0.096677
H23   H     H_    0.112872 0.525572 0.010062 0.180724
H24   H     H_    0.893292 0.746853 0.797001 0.140933
H25   H     H_    0.900396 0.658252 0.056064 0.196810
H26   H     H_    0.726069 0.584742 0.163911 0.145071
H27   H     H_    0.548317 0.625959 0.005298 0.159919
H28   H     H_    0.544346 0.702110 0.733486 0.123974
H29   H     H_    0.505627 0.325416 0.425880 0.118178
H30   H     H_    0.386116 0.437706 0.564635 0.147475
H31   H     H_    0.446329 0.497342 0.843029 0.118656
H32   H     H_    0.630239 0.446991 0.980494 0.124366
H33   H     H_    0.755342 0.348972 0.835256 0.141219
H34   H     H_    0.886474 0.475165 0.989312 0.185958
H35   H     H_    0.221382 0.646009 0.164057 0.164032
H36   H     H_    0.315260 0.514306 0.034288 0.109787
H37   H     H_    0.496598 0.451564 0.155513 0.120284
H38   H     H_    0.600401 0.548916 0.373789 0.134908
H39   H     H_    0.513535 0.693586 0.483262 0.114731
H40   H     H_    0.984044 0.813501 0.422294 0.106152
H41   H     H_    0.059056 0.874411 0.177968 0.125318
H42   H     H_    0.931058 0.915229 0.915325 0.109519
H43   H     H_    0.734419 0.898478 0.924396 0.155859
H44   H     H_    0.660645 0.807511 0.155297 0.160583
N1    N     N_2   0.541470 0.000000 0.055820 -0.218373
N2    N     N_2   0.458530 0.000000 0.944180 -0.205599
N3    N     N_2   0.041470 0.500000 0.055820 -0.213735
N4    N     N_2   0.958530 0.500000 0.944180 -0.234222
O1    O     O_R   0.375700 0.885870 0.609240 -0.593126
O2    O     O_R   0.597720 0.114130 0.675960 -0.643395
O3    O     O_R   0.597720 0.885870 0.675960 -0.640212
O4    O     O_R   0.402280 0.114130 0.324040 -0.658219
O5    O     O_R   0.902280 0.385870 0.324040 -0.635052
O6    O     O_R   0.097720 0.614130 0.675960 -0.630996
O7    O     O_R   0.097720 0.385870 0.675960 -0.663130
O8    O     O_R   0.902280 0.614130 0.324040 -0.642139
O9    O     O_R   0.624300 0.114130 0.390760 -0.595366
O10   O     O_R   0.624300 0.885870 0.390760 -0.621533
O11   O     O_R   0.375700 0.114130 0.609240 -0.592753
O12   O     O_R   0.875700 0.385870 0.609240 -0.628614
O13   O     O_R   0.124300 0.614130 0.390760 -0.624726
O14   O     O_R   0.124300 0.385870 0.390760 -0.581217
O15   O     O_R   0.875700 0.614130 0.609240 -0.609570
O16   O     O_R   0.402280 0.885870 0.324040 -0.650435
Zn1   Zn    Zn3+2 0.482250 0.000000 0.690430 0.951702
Zn2   Zn    Zn3+2 0.517750 0.000000 0.309570 0.930049
Zn3   Zn    Zn3+2 0.982250 0.500000 0.690430 0.912920
Zn4   Zn    Zn3+2 0.017750 0.500000 0.309570 0.929573

loop_
_geom_bond_atom_site_label_1
_geom_bond_atom_site_label_2
_ccdc_geom_bond_type
C40   H21   S    
C34   O11   A    
C38   H19   S    
C19   C20   A    
C1    O16   A    
O9    Zn2   S    
C35   H17   S    
C53   C54   A    
C41   H22   S    
C26   C27   A    
C37   C38   A    
O1    Zn1   S    
C52   H31   S    
C8    C29   S    
C36   C37   A    
C61   H39   S    
C39   H20   S    
C30   C31   A    
H23   N3    S    
C34   O4    A    
C49   C54   A    
C57   H35   S    
C26   H9    S    
C5    C63   S    
N2    Zn1   S    
C18   C19   A    
C6    C64   D    
O5    Zn4   S    
C8    C45   S    
C3    C12   S    
C30   H13   S    
C12   O9    A    
N3    N4    D    
C16   C17   A    
C11   H41   S    
O7    Zn3   S    
C54   H33   S    
O6    Zn3   S    
C27   H10   S    
C9    C10   A    
C59   C60   A    
C22   C28   A    
C13   C14   A    
O11   Zn1   S    
C53   H32   S    
C36   C41   A    
C1    O1    A    
C7    C56   S    
C4    C7    D    
C60   H38   S    
C44   C46   A    
C17   C18   A    
C23   O10   A    
C12   O2    A    
C45   O12   A    
C3    C49   S    
H34   N4    S    
C51   C52   A    
C59   H37   S    
C58   H36   S    
C24   C25   A    
C18   H3    S    
C3    C8    D    
C39   C40   A    
C62   O14   A    
C25   C26   A    
C16   C21   A    
O12   Zn3   S    
C60   C61   A    
C15   H44   S    
C43   C44   A    
C5    C9    S    
C29   C30   A    
C47   C48   A    
O14   Zn4   S    
C34   C64   S    
C50   C51   A    
C17   H2    S    
C19   H4    S    
C50   H29   S    
C25   H8    S    
C42   C48   A    
C56   O13   A    
H1    N1    S    
C62   O7    A    
C40   C41   A    
C55   C57   A    
C4    C55   S    
O2    Zn1   S    
C22   C24   A    
C20   H5    S    
C2    C5    D    
C42   C43   A    
C43   H24   S    
C2    C23   S    
C52   C53   A    
C31   H14   S    
O3    Zn1   S    
C45   O5    A    
C46   C47   A    
C14   H43   S    
O8    Zn4   S    
C47   H27   S    
C31   C32   A    
C13   H42   S    
O16   Zn2   S    
C33   H16   S    
C46   H26   S    
C7    C22   S    
C29   C35   A    
C21   H6    S    
C1    C4    S    
C32   C33   A    
C6    C62   S    
C10   H40   S    
C58   C59   A    
N1    N2    D    
C32   H15   S    
C56   O6    A    
C63   O8    A    
C11   C13   A    
O13   Zn4   S    
C57   C58   A    
C38   C39   A    
C2    C42   S    
C55   C61   A    
C33   C35   A    
O10   Zn2   S    
N4    Zn3   S    
C9    C15   A    
C37   H18   S    
O15   Zn3   S    
C10   C11   A    
C51   H30   S    
C23   O3    A    
N3    Zn4   S    
O4    Zn2   S    
C20   C21   A    
H12   N2    S    
C49   C50   A    
C48   H28   S    
N1    Zn2   S    
C14   C15   A    
C36   C64   S    
C28   H11   S    
C6    C16   S    
C63   O15   A    
C44   H25   S    
C24   H7    S    
C27   C28   A    
