data_mof_unit_37208.cif
_audit_creation_date              2012-12-10T18:36:09-0500
_audit_creation_method            fapswitch 2.2
_symmetry_space_group_name_H-M    P1
_symmetry_Int_Tables_number       1
_space_group_crystal_system       triclinic
_cell_length_a                    15.20106
_cell_length_b                    14.075289
_cell_length_c                    14.920985
_cell_angle_alpha                 90.030628
_cell_angle_beta                  96.199889
_cell_angle_gamma                 89.937428
_cell_volume                      3173.8092385

loop_
_atom_site_label
_atom_site_type_symbol
_atom_type_description
_atom_site_fract_x
_atom_site_fract_y
_atom_site_fract_z
_atom_type_partial_charge
C1    C     C_R   0.330396 0.500071 0.502833 0.868459
C2    C     C_R   0.669615 0.500046 0.497115 0.867499
C3    C     C_R   0.336267 0.484669 0.027651 0.323219
C4    C     C_R   0.663518 0.494200 0.972276 0.324855
C5    C     C_R   0.092668 0.580958 0.476318 -0.261883
C6    C     C_R   0.901651 0.417448 0.466597 -0.257520
C7    C     C_R   0.907540 0.580664 0.516468 -0.253526
C8    C     C_R   0.096774 0.416321 0.522121 -0.257792
C9    C     C_R   0.184555 0.584728 0.487714 0.409863
C10   C     C_R   0.809808 0.416104 0.469155 0.398987
C11   C     C_R   0.815872 0.584260 0.510401 0.400869
C12   C     C_R   0.189063 0.415393 0.524213 0.394807
C13   C     C_R   0.233712 0.500154 0.505395 -0.219715
C14   C     C_R   0.765983 0.500242 0.491914 -0.226134
C15   C     C_R   0.048105 0.497876 0.495533 0.043253
C16   C     C_R   0.951094 0.498364 0.493060 0.037345
C17   C     C_R   0.532807 0.106848 0.575551 -0.305586
C18   C     C_R   0.447724 0.893297 0.435221 -0.335212
C19   C     C_R   0.466104 0.106691 0.425059 -0.307740
C20   C     C_R   0.550373 0.893344 0.565804 -0.330139
C21   C     C_R   0.540329 0.206572 0.572972 0.500249
C22   C     C_R   0.450255 0.793129 0.432243 0.502145
C23   C     C_R   0.459441 0.206526 0.427152 0.497050
C24   C     C_R   0.549039 0.793158 0.568081 0.499466
C25   C     C_R   0.499202 0.054075 0.500429 0.024234
C26   C     C_R   0.499035 0.945811 0.500516 0.043630
C27   C     C_R   0.499227 0.499973 0.329267 0.819488
C28   C     C_R   0.500456 0.499991 0.670690 0.823197
C29   C     C_R   0.580563 0.500298 0.821425 -0.056279
C30   C     C_R   0.418913 0.495504 0.178545 -0.063025
C31   C     C_R   0.500528 0.499659 0.766933 -0.027949
C32   C     C_R   0.498933 0.499680 0.232977 -0.023621
C33   C     C_R   0.420577 0.495506 0.803347 -0.162202
C34   C     C_R   0.578895 0.500826 0.196470 -0.161046
C35   C     C_R   0.419132 0.494583 0.896687 -0.001726
C36   C     C_R   0.580277 0.499713 0.103149 -0.001210
C37   C     C_R   0.500279 0.496100 0.953116 -0.043110
C38   C     C_R   0.499163 0.496152 0.046765 -0.041684
C39   C     C_R   0.582381 0.496839 0.915436 -0.071063
C40   C     C_R   0.417174 0.492089 0.084486 -0.070199
C41   C     C_R   0.337701 0.490767 0.933597 0.340922
C42   C     C_R   0.661737 0.500739 0.066221 0.340275
Cu1   Cu    Cu3+1 0.500000 0.596430 0.500000 1.081658
Cu2   Cu    Cu3+1 0.500000 0.403570 0.500000 1.111577
H1    H     H_    0.640457 0.503763 0.788783 0.206014
H2    H     H_    0.358979 0.495338 0.211284 0.205729
H3    H     H_    0.359816 0.493152 0.758048 0.152452
H4    H     H_    0.639742 0.502401 0.241687 0.150244
H5    H     H_    0.056668 0.644812 0.454783 0.152067
H6    H     H_    0.934239 0.355011 0.443712 0.151987
H7    H     H_    0.944076 0.643924 0.538670 0.153863
H8    H     H_    0.063407 0.353496 0.542849 0.150172
H9    H     H_    0.555128 0.071081 0.637687 0.208370
H10   H     H_    0.404991 0.930283 0.384706 0.209013
H11   H     H_    0.443625 0.070672 0.363089 0.208946
H12   H     H_    0.592578 0.930309 0.616729 0.207091
N1    N     N_R   0.500000 0.258690 0.500000 -0.290807
N2    N     N_R   0.500000 0.741310 0.500000 -0.299512
O1    O     O_R   0.371460 0.581430 0.500010 -0.523079
O2    O     O_R   0.628540 0.418570 0.499990 -0.525384
O3    O     O_R   0.628540 0.581430 0.499990 -0.534670
O4    O     O_R   0.371460 0.418570 0.500010 -0.530880
O5    O     O_R   0.499980 0.581440 0.370260 -0.537227
O6    O     O_R   0.500020 0.418560 0.629740 -0.515165
O7    O     O_R   0.500020 0.581440 0.629740 -0.532266
O8    O     O_R   0.499980 0.418560 0.370260 -0.512418
O9    O     O_3   0.259817 0.485170 0.876520 -0.546901
C43   C     C_3   0.227117 0.577941 0.857951 0.092841
H13   H     H_    0.278828 0.625268 0.834482 0.113383
H14   H     H_    0.203283 0.609286 0.919486 0.199294
C44   C     C_3   0.149970 0.572369 0.783336 -0.305062
H15   H     H_    0.174713 0.546555 0.720195 0.201417
H16   H     H_    0.099982 0.520945 0.802907 0.268186
C45   C     C_3   0.105665 0.668916 0.765905 -0.901757
H17   H     H_    0.074751 0.692530 0.826282 0.285818
H18   H     H_    0.053390 0.663307 0.708095 0.261558
H19   H     H_    0.154782 0.722796 0.749667 0.246170
O10   O     O_3   0.739813 0.501320 0.123259 -0.548592
C46   C     C_3   0.766724 0.596454 0.139267 0.093988
H20   H     H_    0.712564 0.640320 0.162928 0.117905
H21   H     H_    0.787230 0.628398 0.076494 0.199249
C47   C     C_3   0.845296 0.597779 0.212424 -0.306483
H22   H     H_    0.823663 0.571404 0.276796 0.199448
H23   H     H_    0.898140 0.549859 0.192748 0.268525
C48   C     C_3   0.883016 0.697697 0.226759 -0.898724
H24   H     H_    0.909686 0.723077 0.164610 0.284321
H25   H     H_    0.937537 0.696856 0.282668 0.261074
H26   H     H_    0.830890 0.747575 0.244336 0.246143
S1    S     S_3+6 0.233734 0.464886 0.072982 0.021748
O11   O     O_2   0.244527 0.384567 0.139679 -0.243531
O12   O     O_2   0.209106 0.553677 0.120482 -0.320837
O13   O     O_3   0.151130 0.436815 0.993104 -0.472298
H27   H     H_    0.097014 0.436417 0.024608 0.375128
S2    S     S_3+6 0.766968 0.479878 0.927225 0.020812
O14   O     O_2   0.760068 0.399474 0.860445 -0.248463
O15   O     O_2   0.787735 0.570091 0.879951 -0.319471
O16   O     O_3   0.850444 0.455564 0.007422 -0.471788
H28   H     H_    0.904635 0.457616 0.976086 0.373934
O17   O     O_3   0.225737 0.671732 0.481292 -0.535983
C49   C     C_3   0.217601 0.723348 0.561428 0.063993
H29   H     H_    0.240745 0.680121 0.622155 0.126251
H30   H     H_    0.147486 0.744980 0.564560 0.136997
C50   C     C_3   0.274645 0.812608 0.563116 -0.291770
H31   H     H_    0.345059 0.791214 0.566562 0.225256
H32   H     H_    0.257016 0.854487 0.500586 0.240133
C51   C     C_3   0.262904 0.874473 0.644967 -0.899556
H33   H     H_    0.192542 0.895736 0.645045 0.253969
H34   H     H_    0.303840 0.939582 0.642803 0.274334
H35   H     H_    0.284515 0.835206 0.708103 0.267568
O18   O     O_3   0.761665 0.336029 0.440059 -0.586964
C52   C     C_3   0.786232 0.256545 0.495652 0.142168
H36   H     H_    0.726053 0.230711 0.523883 0.198984
H37   H     H_    0.836040 0.272262 0.554493 0.147029
C53   C     C_3   0.820118 0.176656 0.438846 -0.380177
H38   H     H_    0.766496 0.154462 0.386441 0.244820
H39   H     H_    0.876757 0.202370 0.404400 0.227600
C54   C     C_3   0.850017 0.090961 0.497015 -0.892677
H40   H     H_    0.905567 0.110964 0.548083 0.266118
H41   H     H_    0.873120 0.033890 0.453770 0.262695
H42   H     H_    0.794286 0.063288 0.531801 0.273331
O19   O     O_3   0.776867 0.670333 0.526859 -0.539007
C55   C     C_3   0.768103 0.724252 0.446295 0.068133
H43   H     H_    0.709087 0.699055 0.402064 0.163341
H44   H     H_    0.827149 0.718475 0.408250 0.115429
C56   C     C_3   0.757089 0.829180 0.469256 -0.311207
H45   H     H_    0.713309 0.836326 0.523417 0.259932
H46   H     H_    0.822534 0.859356 0.494927 0.212519
C57   C     C_3   0.717835 0.885935 0.387349 -0.899170
H47   H     H_    0.762448 0.882934 0.333192 0.259823
H48   H     H_    0.709340 0.961239 0.406792 0.269269
H49   H     H_    0.651851 0.857264 0.361494 0.273951
O20   O     O_3   0.236501 0.335977 0.556576 -0.590144
C58   C     C_3   0.216485 0.255883 0.500426 0.146859
H50   H     H_    0.279050 0.231568 0.475959 0.200260
H51   H     H_    0.169058 0.270146 0.439328 0.148362
C59   C     C_3   0.181397 0.175315 0.555375 -0.388394
H52   H     H_    0.230049 0.159616 0.614631 0.251092
H53   H     H_    0.118183 0.197301 0.580260 0.220201
C60   C     C_3   0.165737 0.085275 0.498848 -0.868337
H54   H     H_    0.117569 0.099278 0.438874 0.268931
H55   H     H_    0.138392 0.028928 0.539814 0.257656
H56   H     H_    0.228969 0.059525 0.476465 0.270197
S3    S     S_3+6 0.604191 0.253562 0.670618 0.025523
O21   O     O_2   0.669767 0.179655 0.707905 -0.298705
O22   O     O_2   0.655351 0.341255 0.652954 -0.282181
O23   O     O_3   0.535756 0.276106 0.749462 -0.514323
H57   H     H_    0.575161 0.287816 0.805690 0.387317
S4    S     S_3+6 0.391864 0.745524 0.331228 0.050401
O24   O     O_2   0.324298 0.816531 0.292043 -0.288687
O25   O     O_2   0.457356 0.730951 0.263845 -0.294234
O26   O     O_3   0.337431 0.643654 0.343293 -0.482529
H58   H     H_    0.297604 0.636101 0.286694 0.382944
S5    S     S_3+6 0.396415 0.253611 0.329029 0.025197
O27   O     O_2   0.330920 0.179978 0.291205 -0.297724
O28   O     O_2   0.345212 0.341537 0.346324 -0.284566
O29   O     O_3   0.465647 0.275739 0.250879 -0.513837
H59   H     H_    0.426853 0.284599 0.193750 0.388253
S6    S     S_3+6 0.607058 0.745570 0.669326 0.045449
O30   O     O_2   0.674271 0.816643 0.708922 -0.297751
O31   O     O_2   0.541277 0.730955 0.736362 -0.285909
O32   O     O_3   0.661688 0.643665 0.657276 -0.483288
H60   H     H_    0.705735 0.639260 0.711079 0.388571

loop_
_geom_bond_atom_site_label_1
_geom_bond_atom_site_label_2
_ccdc_geom_bond_type
S3    O23   S    
C38   C40   A    
C36   C42   A    
C52   H36   S    
C18   C26   A    
S4    O26   S    
C20   H12   S    
C57   H47   S    
C4    C42   A    
C46   C47   S    
C53   H38   S    
Cu1   O5    S    
C41   O9    S    
C48   H24   S    
Cu2   O6    S    
C21   N1    A    
C20   C26   A    
C29   C31   A    
O29   H59   S    
C35   C37   A    
S4    O25   D    
C54   H41   S    
C11   C14   A    
C24   S6    S    
C51   H33   S    
C15   C16   S    
O16   H28   S    
S3    O22   D    
C9    C13   A    
O18   C52   S    
O13   H27   S    
Cu1   N2    S    
C33   C35   A    
Cu2   O8    S    
C52   H37   S    
C20   C24   A    
C43   H13   S    
C45   H19   S    
C56   C57   S    
O26   H58   S    
C31   C33   A    
S1    O12   D    
C8    H8    S    
C34   C36   A    
S6    O32   S    
C2    O3    A    
Cu1   O1    S    
C9    O17   S    
C1    O4    A    
S6    O31   D    
C5    H5    S    
C52   C53   S    
C11   O19   S    
C59   C60   S    
C35   C41   A    
O32   H60   S    
C48   H25   S    
C45   H17   S    
O9    C43   S    
Cu1   O7    S    
S4    O24   D    
C21   S3    S    
C59   H53   S    
C10   C14   A    
C54   H42   S    
C44   H16   S    
O10   C46   S    
O20   C58   S    
S2    O16   S    
Cu2   O4    S    
C25   C26   S    
C49   C50   S    
C17   C21   A    
C29   H1    S    
S5    O29   S    
C32   C34   A    
S6    O30   D    
C1    C13   S    
C19   C23   A    
Cu1   Cu2   S    
C5    C9    A    
C37   C38   A    
C56   H46   S    
C58   C59   S    
C7    C11   A    
O17   C49   S    
C4    C39   A    
Cu2   N1    S    
C8    C12   A    
C29   C39   A    
C49   H30   S    
C30   C40   A    
C50   H32   S    
C6    H6    S    
S1    O13   S    
S2    O15   D    
O19   C55   S    
C27   O5    A    
C4    S2    S    
C28   O6    A    
C24   N2    A    
C7    C16   A    
C22   S4    S    
C3    C40   A    
C42   O10   S    
C8    C15   A    
C47   H23   S    
C23   S5    S    
C58   H50   S    
C33   H3    S    
S5    O28   D    
C45   H18   S    
C55   H44   S    
C57   H49   S    
C17   H9    S    
Cu1   O3    S    
C46   H21   S    
O23   H57   S    
C48   H26   S    
C19   H11   S    
C23   N1    A    
C3    C41   A    
C12   O20   S    
C27   C32   S    
C18   C22   A    
C30   H2    S    
C28   C31   S    
C59   H52   S    
C57   H48   S    
C22   N2    A    
C44   C45   S    
C53   H39   S    
C60   H54   S    
C47   C48   S    
C3    S1    S    
C17   C25   A    
C55   C56   S    
C1    O1    A    
C28   O7    A    
C55   H43   S    
C7    H7    S    
C44   H15   S    
C37   C39   A    
C27   O8    A    
C54   H40   S    
C30   C32   A    
C60   H55   S    
C56   H45   S    
C51   H34   S    
Cu2   O2    S    
C43   C44   S    
C36   C38   A    
C49   H29   S    
C60   H56   S    
C10   O18   S    
C50   C51   S    
C2    O2    A    
S2    O14   D    
C2    C14   S    
C5    C15   A    
C53   C54   S    
C6    C10   A    
C18   H10   S    
C19   C25   A    
C6    C16   A    
C46   H20   S    
C34   H4    S    
C12   C13   A    
C43   H14   S    
C47   H22   S    
C50   H31   S    
C58   H51   S    
S1    O11   D    
S3    O21   D    
S5    O27   D    
C51   H35   S    
