data_mof_unit_27758.cif
_audit_creation_date              2012-10-26T19:45:32-0400
_audit_creation_method            fapswitch 2.2
_symmetry_space_group_name_H-M    P1
_symmetry_Int_Tables_number       1
_space_group_crystal_system       triclinic
_cell_length_a                    10.846306
_cell_length_b                    9.547309
_cell_length_c                    10.784907
_cell_angle_alpha                 90.434902
_cell_angle_beta                  90.87104
_cell_angle_gamma                 90.670719
_cell_volume                      1116.57057973

loop_
_atom_site_label
_atom_site_type_symbol
_atom_type_description
_atom_site_fract_x
_atom_site_fract_y
_atom_site_fract_z
_atom_type_partial_charge
C1    C     C_R   0.262839 0.498997 0.514151 0.618692
C2    C     C_R   0.450880 0.924399 0.402493 0.085759
C3    C     C_R   0.550079 0.927184 0.597253 0.019305
C4    C     C_R   0.549989 0.075700 0.597303 0.043018
C5    C     C_R   0.487259 0.499474 0.260337 0.582008
C6    C     C_R   0.737748 0.500721 0.500270 0.548053
C7    C     C_R   0.501195 0.500207 0.740209 0.548941
C8    C     C_3   0.412310 0.629038 0.065095 0.115724
C9    C     C_3   0.431485 0.355996 0.064877 0.088405
C10   C     C_3   0.404059 0.611335 0.923171 -0.196666
C11   C     C_3   0.453733 0.353061 0.923761 -0.196436
C12   C     C_3   0.624604 0.531116 0.936332 -0.275584
C13   C     C_3   0.618385 0.514366 0.078854 -0.309245
C14   C     C_3   0.481372 0.499181 0.121847 0.010004
C15   C     C_3   0.496257 0.499532 0.877959 -0.045737
C16   C     C_R   0.059254 0.369025 0.521426 0.168393
C17   C     C_R   0.063377 0.622233 0.555271 0.217926
C18   C     C_R   0.933020 0.374823 0.501262 -0.112633
C19   C     C_R   0.936064 0.623924 0.537979 -0.105452
C20   C     C_R   0.871380 0.501229 0.508310 -0.065588
C21   C     C_R   0.128352 0.496217 0.533022 0.011187
C22   C     C_R   0.451444 0.072750 0.402227 0.085917
Cu1   Cu    Cu3+1 0.500020 0.640660 0.500000 1.042240
Cu2   Cu    Cu3+1 0.500020 0.359340 0.500000 1.019389
H1    H     H_    0.473447 0.721730 0.083744 0.114690
H2    H     H_    0.671859 0.420668 0.107085 0.146836
H3    H     H_    0.654190 0.639792 0.913419 0.144331
H4    H     H_    0.694476 0.458606 0.898337 0.153727
H5    H     H_    0.881434 0.278461 0.484990 0.179953
H6    H     H_    0.886724 0.720679 0.551779 0.183749
H7    H     H_    0.412346 0.126793 0.323600 0.153855
H8    H     H_    0.410939 0.868198 0.324259 0.181081
H9    H     H_    0.122621 0.677779 0.982721 0.368360
H10   H     H_    0.262914 0.323159 0.291711 0.365668
H11   H     H_    0.105977 0.125019 0.359340 0.372510
H12   H     H_    0.487889 0.270599 0.105496 0.115440
H13   H     H_    0.293436 0.832770 0.726749 0.373561
H14   H     H_    0.590828 0.872930 0.675094 0.114729
H15   H     H_    0.590793 0.132217 0.675185 0.119396
H16   H     H_    0.309967 0.578157 0.892615 0.213238
H17   H     H_    0.370927 0.317031 0.870143 0.213265
H18   H     H_    0.424378 0.714944 0.881237 0.138668
H19   H     H_    0.526281 0.274785 0.903489 0.107392
H20   H     H_    0.664576 0.606610 0.124116 0.147822
N1    N     N_R   0.500030 0.852070 0.500030 -0.238490
N2    N     N_R   0.500030 0.147930 0.500030 -0.225993
O1    O     O_R   0.319660 0.618740 0.499990 -0.402351
O2    O     O_2   0.258932 0.841378 0.109360 -0.265541
O3    O     O_3   0.144325 0.611799 0.049848 -0.416785
O4    O     O_2   0.188475 0.347182 0.990731 -0.191343
O5    O     O_2   0.266848 0.149600 0.107115 -0.256155
O6    O     O_3   0.221954 0.377808 0.226484 -0.440139
O7    O     O_2   0.214695 0.202342 0.649847 -0.208416
O8    O     O_2   0.014175 0.104808 0.588272 -0.225884
O9    O     O_3   0.177041 0.134531 0.417698 -0.484916
O10   O     O_2   0.173599 0.866384 0.512419 -0.175643
O11   O     O_2   0.039173 0.853889 0.693472 -0.229572
O12   O     O_R   0.319660 0.381260 0.499990 -0.462864
O13   O     O_3   0.253160 0.740725 0.710115 -0.548588
O14   O     O_R   0.499990 0.618790 0.317690 -0.502981
O15   O     O_R   0.499990 0.381210 0.317690 -0.543781
O16   O     O_R   0.680370 0.618830 0.500010 -0.512473
O17   O     O_R   0.680370 0.381170 0.500010 -0.512378
O18   O     O_R   0.500030 0.618780 0.682310 -0.507881
O19   O     O_R   0.500030 0.381220 0.682310 -0.512919
O20   O     O_2   0.254117 0.655508 0.260938 -0.208132
S1    S     S_3+6 0.265638 0.685400 0.125535 0.061446
S2    S     S_3+6 0.273268 0.306243 0.095464 0.052523
S3    S     S_3+6 0.117750 0.199318 0.548691 0.077929
S4    S     S_3+6 0.132062 0.776641 0.617846 0.075436

loop_
_geom_bond_atom_site_label_1
_geom_bond_atom_site_label_2
_ccdc_geom_bond_type
C6    O17   A    
C2    C22   A    
C9    H12   S    
C9    C14   S    
C4    H15   S    
C1    C21   S    
C16   C21   A    
Cu1   N1    S    
O11   S4    D    
C10   H18   S    
C6    C20   S    
O10   S4    D    
C19   C20   A    
O6    S2    S    
C12   C15   S    
Cu1   Cu2   S    
Cu2   N2    S    
C6    O16   A    
C7    C15   S    
O20   S1    D    
C9    S2    S    
C5    O15   A    
C17   S4    S    
O2    S1    D    
C18   H5    S    
H13   O13   S    
C1    O12   A    
C11   H19   S    
C8    H1    S    
C9    C11   S    
C5    C14   S    
O9    S3    S    
O8    S3    D    
C11   C15   S    
Cu2   O19   S    
C12   H4    S    
Cu2   O15   S    
O3    S1    S    
C16   C18   A    
Cu1   O18   S    
C17   C19   A    
C11   H17   S    
Cu2   O17   S    
C18   C20   A    
O5    S2    D    
Cu1   O16   S    
C2    N1    A    
Cu1   O14   S    
C7    O18   A    
C13   H2    S    
C8    C10   S    
C7    O19   A    
C22   H7    S    
O13   S4    S    
H11   O9    S    
C3    C4    A    
Cu2   O12   S    
Cu1   O1    S    
C12   C13   S    
C8    S1    S    
C2    H8    S    
H9    O3    S    
C4    N2    A    
C1    O1    A    
C10   H16   S    
C8    C14   S    
H10   O6    S    
C12   H3    S    
C5    O14   A    
C22   N2    A    
O7    S3    D    
C13   C14   S    
C19   H6    S    
O4    S2    D    
C3    N1    A    
C13   H20   S    
C17   C21   A    
C16   S3    S    
C3    H14   S    
C10   C15   S    
