data_mof_unit_14648.cif
_audit_creation_date              2012-10-26T18:27:06-0400
_audit_creation_method            fapswitch 2.2
_symmetry_space_group_name_H-M    P1
_symmetry_Int_Tables_number       1
_space_group_crystal_system       triclinic
_cell_length_a                    15.063645
_cell_length_b                    10.938629
_cell_length_c                    9.77412
_cell_angle_alpha                 89.707367
_cell_angle_beta                  90.558765
_cell_angle_gamma                 90.684833
_cell_volume                      1610.32503853

loop_
_atom_site_label
_atom_site_type_symbol
_atom_type_description
_atom_site_fract_x
_atom_site_fract_y
_atom_site_fract_z
_atom_type_partial_charge
C1    C     C_R   0.498253 0.265616 0.500549 0.557154
C2    C     C_R   0.185374 0.418219 0.601277 -0.007491
C3    C     C_R   0.232066 0.483956 0.498616 0.013944
C4    C     C_R   0.329024 0.493969 0.499580 0.549707
C5    C     C_R   0.185866 0.544115 0.393882 -0.144878
C6    C     C_2   0.477877 0.935959 0.386360 -0.027554
C7    C     C_2   0.502634 0.867433 0.495974 -0.095295
C8    C     C_2   0.491506 0.068916 0.388173 -0.128748
C9    C     C_2   0.489726 0.133745 0.503585 -0.129426
C10   C     C_2   0.446149 0.435496 0.924235 0.013102
C11   C     C_2   0.452683 0.424412 0.077201 0.074535
C12   C     C_R   0.907170 0.552102 0.389610 0.027544
C13   C     C_R   0.498807 0.734611 0.498967 0.554673
C14   C     C_R   0.671019 0.500870 0.500493 0.547763
C15   C     C_R   0.814077 0.552731 0.391499 -0.135785
C16   C     C_R   0.767703 0.501154 0.501405 -0.015175
C17   C     C_R   0.813442 0.448250 0.611099 -0.140002
C18   C     C_R   0.905685 0.443526 0.610215 0.011809
C19   C     C_R   0.953084 0.495543 0.499869 0.046949
C20   C     C_3   0.570501 0.576520 0.898938 -0.202912
C21   C     C_1   0.401143 0.327553 0.139202 0.243775
C22   C     C_3   0.232876 0.331227 0.697980 -0.384810
C23   C     C_R   0.950971 0.386566 0.717861 -0.138124
C24   C     C_3   0.910135 0.666789 0.160585 -0.408449
C25   C     C_3   0.437021 0.882956 0.257244 -0.357619
C26   C     C_R   0.042916 0.378360 0.715977 -0.130782
C27   C     C_R   0.092008 0.428492 0.606710 0.033709
C28   C     C_R   0.046325 0.490119 0.499767 0.041033
C29   C     C_R   0.093606 0.545212 0.391913 -0.008126
C30   C     C_R   0.048417 0.602639 0.284117 -0.108645
C31   C     C_R   0.955541 0.605742 0.280651 0.002755
Cu1   Cu    Cu3+1 0.500020 0.500020 0.638630 0.923154
Cu2   Cu    Cu3+1 0.499980 0.499980 0.361370 0.938810
H1    H     H_    0.776722 0.594212 0.308685 0.126892
H2    H     H_    0.222163 0.591765 0.313992 0.120958
H3    H     H_    0.085880 0.644537 0.201700 0.109031
H4    H     H_    0.614428 0.606254 0.815740 0.171642
H5    H     H_    0.543782 0.664311 0.936038 0.075618
H6    H     H_    0.613636 0.527275 0.973165 0.104149
H7    H     H_    0.299714 0.306059 0.662122 0.153321
H8    H     H_    0.238042 0.372143 0.801476 0.127043
H9    H     H_    0.195868 0.243000 0.704093 0.120572
H10   H     H_    0.869679 0.744143 0.196875 0.130004
H11   H     H_    0.958620 0.703731 0.085615 0.129982
H12   H     H_    0.531073 0.909560 0.586768 0.081520
H13   H     H_    0.866746 0.599623 0.106412 0.128974
H14   H     H_    0.411525 0.956158 0.188683 0.129439
H15   H     H_    0.487444 0.831885 0.199244 0.141390
H16   H     H_    0.379842 0.822268 0.282865 0.147115
H17   H     H_    0.500104 0.114809 0.290277 0.166270
H18   H     H_    0.477199 0.091066 0.602050 0.097190
H19   H     H_    0.396959 0.378046 0.873392 0.110797
H20   H     H_    0.504869 0.586715 0.119602 0.207717
H21   H     H_    0.777029 0.407822 0.695552 0.123383
H22   H     H_    0.915106 0.347238 0.803376 0.110102
H23   H     H_    0.074836 0.333965 0.802123 0.116909
N1    N     N_2   0.499020 0.498660 0.846910 -0.240735
N2    N     N_2   0.499000 0.498630 0.153040 -0.372378
N3    N     N_1   0.358747 0.250039 0.187648 -0.330129
O1    O     O_R   0.500020 0.321960 0.617040 -0.504899
O2    O     O_R   0.499980 0.321920 0.382900 -0.475749
O3    O     O_R   0.370270 0.499990 0.617090 -0.500290
O4    O     O_R   0.370240 0.499950 0.382940 -0.495637
O5    O     O_R   0.500020 0.678080 0.617100 -0.501896
O6    O     O_R   0.499980 0.678040 0.382960 -0.510181
O7    O     O_R   0.629760 0.500050 0.617060 -0.519918
O8    O     O_R   0.629730 0.500010 0.382910 -0.494800

loop_
_geom_bond_atom_site_label_1
_geom_bond_atom_site_label_2
_ccdc_geom_bond_type
C17   C18   A    
C2    C22   S    
C1    O2    A    
H20   N2    S    
C23   H22   S    
C2    C27   A    
C19   C28   A    
C8    H17   S    
C11   N2    D    
C20   H5    S    
C25   H14   S    
C15   H1    S    
C25   H15   S    
C12   C15   A    
C30   H3    S    
Cu2   N2    S    
Cu2   O4    S    
C24   H13   S    
Cu1   Cu2   S    
C2    C3    A    
C14   O7    A    
C24   C31   S    
C10   H19   S    
C13   O6    A    
C20   H4    S    
C4    O4    A    
Cu1   O5    S    
C26   C27   A    
C22   H9    S    
C13   O5    A    
Cu1   N1    S    
C15   C16   A    
C7    H12   S    
C12   C19   A    
Cu1   O7    S    
C28   C29   A    
C21   N3    T    
C6    C7    D    
C5    C29   A    
C12   C31   A    
C30   C31   A    
C24   H11   S    
C14   C16   S    
C1    O1    A    
C22   H8    S    
C10   C11   S    
Cu1   O1    S    
C14   O8    A    
C29   C30   A    
C18   C23   A    
C6    C25   S    
C4    O3    A    
C7    C13   S    
C10   N1    D    
C1    C9    S    
Cu2   O8    S    
Cu2   O2    S    
C18   C19   A    
C5    H2    S    
C23   C26   A    
C27   C28   A    
C24   H10   S    
C20   H6    S    
C22   H7    S    
C8    C9    D    
C6    C8    S    
Cu1   O3    S    
C20   N1    S    
C17   H21   S    
C11   C21   S    
Cu2   O6    S    
C3    C4    S    
C26   H23   S    
C16   C17   A    
C3    C5    A    
C25   H16   S    
C9    H18   S    
