data_mof_unit_43061.cif
_audit_creation_date              2012-12-10T18:49:20-0500
_audit_creation_method            fapswitch 2.2
_symmetry_space_group_name_H-M    P1
_symmetry_Int_Tables_number       1
_space_group_crystal_system       triclinic
_cell_length_a                    9.955601
_cell_length_b                    10.71451
_cell_length_c                    13.631783
_cell_angle_alpha                 92.114322
_cell_angle_beta                  82.302272
_cell_angle_gamma                 88.971154
_cell_volume                      1439.62438789

loop_
_atom_site_label
_atom_site_type_symbol
_atom_type_description
_atom_site_fract_x
_atom_site_fract_y
_atom_site_fract_z
_atom_type_partial_charge
C1    C     C_R   0.498373 0.739843 0.499715 0.941184
C2    C     C_R   0.500735 0.260814 0.500370 0.963120
C3    C     C_R   0.500810 0.128481 0.498526 -0.166826
C4    C     C_R   0.494186 0.872886 0.495000 -0.173782
C5    C     C_R   0.474967 0.500035 0.685507 0.908432
C6    C     C_R   0.524998 0.499639 0.314525 0.900143
C7    C     C_R   0.943231 0.440551 0.424849 0.158123
C8    C     C_R   0.056450 0.556387 0.576459 0.145771
C9    C     C_R   0.085850 0.438651 0.425763 0.400861
C10   C     C_R   0.914196 0.560821 0.574400 0.408132
C11   C     C_1   0.544813 0.498468 0.210721 -0.222922
C12   C     C_1   0.455106 0.498234 0.789274 -0.204881
C13   C     C_2   0.560251 0.496595 0.018115 0.168572
C14   C     C_2   0.440173 0.494670 0.981765 0.165514
C15   C     C_1   0.443173 0.496405 0.877064 -0.029779
C16   C     C_1   0.556896 0.497506 0.122880 -0.026677
C17   C     C_R   0.593409 0.930567 0.429476 0.119832
C18   C     C_R   0.404714 0.071004 0.565756 0.110215
C19   C     C_R   0.590870 0.060585 0.426836 0.117356
C20   C     C_R   0.393166 0.942390 0.557471 0.110376
N1    N     N_R   0.142790 0.500030 0.500020 -0.213040
N2    N     N_R   0.857210 0.499970 0.499980 -0.210135
O1    O     O_R   0.385380 0.683250 0.500010 -0.619978
O2    O     O_R   0.614620 0.316750 0.499990 -0.625689
O3    O     O_R   0.614710 0.683220 0.500000 -0.623756
O4    O     O_R   0.385290 0.316780 0.500000 -0.635727
O5    O     O_R   0.368830 0.499990 0.640350 -0.626751
O6    O     O_R   0.631170 0.500010 0.359650 -0.612863
O7    O     O_R   0.598160 0.499960 0.640350 -0.600960
O8    O     O_R   0.401840 0.500040 0.359650 -0.601906
Zn1   Zn    Zn3+2 0.346870 0.500020 0.500000 0.925571
Zn2   Zn    Zn3+2 0.653130 0.499980 0.500000 0.943768
N3    N     N_2   0.890643 0.372713 0.347581 -0.261396
H1    H     H_    0.796304 0.336235 0.363858 0.285619
C21   C     C_3   0.924245 0.415403 0.247770 -0.684737
H2    H     H_    0.831085 0.447251 0.218929 0.219221
H3    H     H_    0.971309 0.336834 0.199016 0.245845
H4    H     H_    0.995672 0.494232 0.244514 0.243841
N4    N     N_2   0.108120 0.615674 0.657962 -0.262350
H5    H     H_    0.201786 0.654601 0.645214 0.286089
C22   C     C_3   0.072128 0.564025 0.754490 -0.701690
H6    H     H_    0.162940 0.521147 0.779763 0.223520
H7    H     H_    0.994152 0.491124 0.753513 0.244138
H8    H     H_    0.031980 0.640167 0.808414 0.245818
O9    O     O_3   0.163919 0.369343 0.351591 -0.745206
H9    H     H_    0.244421 0.338099 0.378327 0.373933
O10   O     O_3   0.836308 0.630026 0.648717 -0.745878
H10   H     H_    0.756127 0.661896 0.621879 0.375245
N5    N     N_2   0.312932 0.490203 0.045505 -0.287937
H11   H     H_    0.306931 0.539168 0.112564 0.242483
C23   C     C_3   0.188673 0.495320 0.001264 -0.792475
H12   H     H_    0.100653 0.484860 0.059310 0.241274
H13   H     H_    0.187563 0.417704 0.945079 0.250801
H14   H     H_    0.178286 0.586624 0.966632 0.238039
N6    N     N_2   0.687730 0.500338 0.954579 -0.288439
H15   H     H_    0.692688 0.453900 0.886536 0.242118
C24   C     C_3   0.811561 0.489405 0.998883 -0.796717
H16   H     H_    0.900266 0.498338 0.941190 0.241969
H17   H     H_    0.818189 0.396765 0.032169 0.236750
H18   H     H_    0.815499 0.565226 0.056183 0.249534
N7    N     N_2   0.692264 0.856446 0.366097 -0.282998
H19   H     H_    0.790335 0.887274 0.359719 0.215835
C25   C     C_3   0.651074 0.810561 0.273844 -0.733555
H20   H     H_    0.656853 0.885671 0.219807 0.228325
H21   H     H_    0.546178 0.775112 0.285782 0.229390
H22   H     H_    0.720482 0.732651 0.242276 0.237189
N8    N     N_2   0.330103 0.141857 0.646815 -0.303557
H23   H     H_    0.338610 0.109080 0.715942 0.209989
C26   C     C_3   0.194715 0.185820 0.635533 -0.703929
H24   H     H_    0.118041 0.125484 0.675775 0.214448
H25   H     H_    0.178976 0.187169 0.556388 0.247452
H26   H     H_    0.179063 0.282423 0.667859 0.249329
N9    N     N_2   0.674391 0.123846 0.351772 -0.309578
H27   H     H_    0.767522 0.082823 0.326803 0.230228
C27   C     C_3   0.605136 0.167191 0.272045 -0.774243
H28   H     H_    0.568384 0.087056 0.230075 0.241880
H29   H     H_    0.675960 0.221105 0.220683 0.234855
H30   H     H_    0.517242 0.229079 0.301161 0.235236
N10   N     N_2   0.279422 0.883675 0.609985 -0.301580
H31   H     H_    0.255592 0.914334 0.682881 0.223859
C28   C     C_3   0.161694 0.880920 0.557515 -0.738755
H32   H     H_    0.072587 0.847555 0.606490 0.245286
H33   H     H_    0.180807 0.817623 0.490656 0.259406
H34   H     H_    0.135675 0.974945 0.533604 0.234776

loop_
_geom_bond_atom_site_label_1
_geom_bond_atom_site_label_2
_ccdc_geom_bond_type
N6    H15   S    
C25   H21   S    
C9    O9    S    
N9    C27   S    
C22   H6    S    
C21   H2    S    
C28   H32   S    
N4    C22   S    
O9    H9    S    
C10   N2    A    
N1    Zn1   S    
N2    Zn2   S    
C21   H3    S    
O7    Zn2   S    
O8    Zn1   S    
C24   H17   S    
C14   N5    S    
C3    C18   A    
C26   H25   S    
N9    H27   S    
N7    C25   S    
C17   N7    S    
C5    O5    A    
C6    O6    A    
N5    C23   S    
C3    C19   A    
C8    N4    S    
O3    Zn2   S    
C25   H22   S    
O4    Zn1   S    
C13   C14   D    
C1    O3    A    
C22   H7    S    
C26   H24   S    
C28   H33   S    
N3    H1    S    
C5    O7    A    
C7    N3    S    
O5    Zn1   S    
C23   H12   S    
O6    Zn2   S    
C21   H4    S    
C5    C12   S    
N4    H5    S    
N10   C28   S    
C17   C19   A    
C24   H18   S    
C18   N8    S    
N8    H23   S    
C23   H13   S    
O1    Zn1   S    
C26   H26   S    
C27   H28   S    
O2    Zn2   S    
C11   C16   T    
O10   H10   S    
C12   C15   T    
C19   N9    S    
C8    N1    A    
C2    O4    A    
C27   H29   S    
C4    C17   A    
C6    O8    A    
C1    O1    A    
N6    C24   S    
C2    O2    A    
C22   H8    S    
C6    C11   S    
C28   H34   S    
C7    C9    A    
C20   N10   S    
C25   H20   S    
C7    N2    A    
C1    C4    S    
C23   H14   S    
C2    C3    S    
C9    N1    A    
C24   H16   S    
N3    C21   S    
C18   C20   A    
N7    H19   S    
C27   H30   S    
N10   H31   S    
C4    C20   A    
C8    C10   A    
N5    H11   S    
C13   C16   S    
C10   O10   S    
C14   C15   S    
N8    C26   S    
C13   N6    S    
