data_mof_unit_25152.cif
_audit_creation_date              2012-12-10T19:11:33-0500
_audit_creation_method            fapswitch 2.2
_symmetry_space_group_name_H-M    P1
_symmetry_Int_Tables_number       1
_space_group_crystal_system       triclinic
_cell_length_a                    10.625824
_cell_length_b                    9.702962
_cell_length_c                    10.483475
_cell_angle_alpha                 89.794095
_cell_angle_beta                  90.665324
_cell_angle_gamma                 90.060054
_cell_volume                      1080.78648998

loop_
_atom_site_label
_atom_site_type_symbol
_atom_type_description
_atom_site_fract_x
_atom_site_fract_y
_atom_site_fract_z
_atom_type_partial_charge
C1    C     C_R   0.257788 0.500045 0.504544 1.036533
C2    C     C_3   0.500251 0.500705 0.122141 0.042454
C3    C     C_3   0.072682 0.636418 0.569672 0.373566
C4    C     C_3   0.072468 0.372311 0.582671 0.378439
C5    C     C_3   0.928571 0.637994 0.564268 -0.481378
C6    C     C_3   0.928735 0.380644 0.593095 -0.483862
C7    C     C_3   0.071095 0.494804 0.362793 0.860444
C8    C     C_3   0.120713 0.500467 0.505276 -0.150154
C9    C     C_3   0.878441 0.500479 0.508849 -0.020082
C10   C     C_3   0.923533 0.482340 0.370347 -0.566469
C11   C     C_3   0.384158 0.081400 0.435906 -0.226306
C12   C     C_3   0.384370 0.918917 0.435516 -0.230141
C13   C     C_3   0.608600 0.081655 0.426675 -0.237278
C14   C     C_3   0.608719 0.919087 0.426866 -0.239713
C15   C     C_3   0.506725 0.080667 0.628584 -0.240451
C16   C     C_3   0.506650 0.918437 0.628584 -0.234367
C17   C     C_R   0.499283 0.500256 0.257080 0.904488
C18   C     C_R   0.742227 0.500093 0.507314 0.918310
C19   C     C_R   0.502149 0.499687 0.742740 0.890269
C20   C     C_3   0.468039 0.626060 0.039343 -0.157378
C21   C     C_3   0.418457 0.405493 0.040359 -0.167715
C22   C     C_3   0.386079 0.530768 0.955009 -0.165560
C23   C     C_3   0.503115 0.498958 0.877568 0.042600
C24   C     C_3   0.585296 0.594003 0.959200 -0.188954
C25   C     C_3   0.535542 0.373623 0.960226 -0.159779
C26   C     C_3   0.617422 0.468745 0.044799 -0.200882
H1    H     H_    0.292097 0.555471 0.913587 0.182685
H2    H     H_    0.869977 0.552324 0.306374 0.154448
H3    H     H_    0.894445 0.377309 0.339119 0.181540
H4    H     H_    0.375390 0.120808 0.336409 0.156308
H5    H     H_    0.376220 0.880807 0.335787 0.154348
H6    H     H_    0.299550 0.118336 0.486811 0.148595
H7    H     H_    0.299599 0.880945 0.485601 0.145278
H8    H     H_    0.606828 0.120517 0.326713 0.145335
H9    H     H_    0.607332 0.880667 0.327009 0.143161
H10   H     H_    0.593249 0.118867 0.677767 0.138959
H11   H     H_    0.593105 0.880017 0.677875 0.140463
H12   H     H_    0.425969 0.118568 0.685050 0.144984
H13   H     H_    0.425882 0.880033 0.685018 0.145742
H14   H     H_    0.698097 0.119297 0.470170 0.143552
H15   H     H_    0.698118 0.881605 0.470756 0.142239
H16   H     H_    0.440299 0.728775 0.075923 0.132897
H17   H     H_    0.352762 0.326725 0.077835 0.130607
H18   H     H_    0.653197 0.670380 0.921061 0.123899
H19   H     H_    0.563032 0.270892 0.923494 0.124696
H20   H     H_    0.711239 0.443764 0.086542 0.117184
H21   H     H_    0.106852 0.726480 0.512916 0.105760
H22   H     H_    0.096204 0.277740 0.527287 0.101810
H23   H     H_    0.889373 0.654309 0.661137 0.197796
H24   H     H_    0.900574 0.397321 0.693890 0.207688
H25   H     H_    0.897248 0.726282 0.503703 0.144758
H26   H     H_    0.888169 0.279994 0.562674 0.145185
N1    N     N_3   0.499750 0.138610 0.497240 -0.033754
N2    N     N_3   0.499750 0.861390 0.497240 -0.033347
O1    O     O_R   0.314910 0.616040 0.499970 -0.620009
O2    O     O_R   0.314910 0.383960 0.499970 -0.613966
O3    O     O_R   0.500080 0.616020 0.313900 -0.630525
O4    O     O_R   0.500080 0.383980 0.313900 -0.629246
O5    O     O_R   0.685320 0.616040 0.499930 -0.640959
O6    O     O_R   0.685320 0.383960 0.499930 -0.641145
O7    O     O_R   0.500150 0.616060 0.686000 -0.636849
O8    O     O_R   0.500150 0.383940 0.686000 -0.636475
Zn1   Zn    Zn3+2 0.500150 0.654960 0.499940 0.918357
Zn2   Zn    Zn3+2 0.500150 0.345040 0.499940 0.920109
O9    O     O_3   0.116187 0.643165 0.698283 -0.540595
C27   C     C_3   0.125328 0.781247 0.739428 -0.371395
H27   H     H_    0.034505 0.836939 0.727396 0.144457
H28   H     H_    0.201029 0.836451 0.688051 0.149696
H29   H     H_    0.150317 0.781663 0.842458 0.184125
O10   O     O_3   0.129130 0.369233 0.706221 -0.541961
C28   C     C_3   0.133623 0.233303 0.754434 -0.358980
H30   H     H_    0.197124 0.168052 0.696797 0.145308
H31   H     H_    0.038172 0.186439 0.758381 0.145988
H32   H     H_    0.172338 0.236229 0.853137 0.183274
O11   O     O_3   0.123387 0.613830 0.299939 -0.631418
C29   C     C_3   0.041376 0.691662 0.221386 -0.421444
H33   H     H_    0.974073 0.750988 0.279920 0.164830
H34   H     H_    0.992740 0.627308 0.148659 0.173096
H35   H     H_    0.098443 0.768194 0.168527 0.194260
O12   O     O_3   0.120577 0.372652 0.306886 -0.653817
C30   C     C_3   0.100222 0.367760 0.173497 -0.295090
H36   H     H_    0.157497 0.446698 0.123831 0.211160
H37   H     H_    0.999289 0.378804 0.146843 0.143161
H38   H     H_    0.130968 0.265454 0.138876 0.156599

loop_
_geom_bond_atom_site_label_1
_geom_bond_atom_site_label_2
_ccdc_geom_bond_type
C7    C10   S    
C27   H28   S    
C1    C8    S    
C29   H35   S    
C4    C8    S    
C6    C9    S    
C4    O10   S    
C30   H36   S    
C7    C8    S    
C15   N1    S    
C1    O2    A    
C24   C26   S    
N1    Zn2   S    
C27   H29   S    
N2    Zn1   S    
C19   O8    A    
C15   C16   S    
O7    Zn1   S    
C13   H14   S    
O8    Zn2   S    
C21   H17   S    
C20   C24   S    
C11   H4    S    
O1    Zn1   S    
C23   C24   S    
O2    Zn2   S    
O10   C28   S    
C9    C10   S    
C11   N1    S    
C16   H11   S    
C27   H27   S    
C13   C14   S    
C2    C17   S    
C5    H23   S    
C3    O9    S    
C30   H37   S    
O3    Zn1   S    
C13   N1    S    
O4    Zn2   S    
C2    C20   S    
C29   H33   S    
C4    C6    S    
C3    C8    S    
C14   H9    S    
C28   H31   S    
C7    O11   S    
C25   C26   S    
C19   C23   S    
O11   C29   S    
C15   H12   S    
C5    C9    S    
C18   O5    A    
C2    C21   S    
C2    C26   S    
C6    H24   S    
C14   H15   S    
C18   O6    A    
C14   N2    S    
C20   C22   S    
C11   H6    S    
C22   H1    S    
C12   H5    S    
C24   H18   S    
C25   H19   S    
C15   H10   S    
C30   H38   S    
C4    H22   S    
C10   H2    S    
C21   C25   S    
C29   H34   S    
O12   C30   S    
C3    C5    S    
C28   H32   S    
C20   H16   S    
C11   C12   S    
C17   O4    A    
O5    Zn1   S    
O6    Zn2   S    
C1    O1    A    
C13   H8    S    
C10   H3    S    
C19   O7    A    
C3    H21   S    
C23   C25   S    
C16   N2    S    
C26   H20   S    
C16   H13   S    
C9    C18   S    
C28   H30   S    
O9    C27   S    
C22   C23   S    
C5    H25   S    
C6    H26   S    
C12   H7    S    
C21   C22   S    
C12   N2    S    
C17   O3    A    
C7    O12   S    
