data_mof_unit_26863.cif
_audit_creation_date              2012-12-10T17:14:41-0500
_audit_creation_method            fapswitch 2.2
_symmetry_space_group_name_H-M    P1
_symmetry_Int_Tables_number       1
_space_group_crystal_system       triclinic
_cell_length_a                    10.636294
_cell_length_b                    13.075973
_cell_length_c                    11.714174
_cell_angle_alpha                 100.120658
_cell_angle_beta                  94.276725
_cell_angle_gamma                 90.600214
_cell_volume                      1598.9280863

loop_
_atom_site_label
_atom_site_type_symbol
_atom_type_description
_atom_site_fract_x
_atom_site_fract_y
_atom_site_fract_z
_atom_type_partial_charge
C1    C     C_R   0.505522 0.299482 0.478964 0.819794
C2    C     C_R   0.494478 0.700518 0.521036 0.819794
C3    C     C_R   0.537336 0.138419 0.566394 -0.091542
C4    C     C_R   0.462666 0.861581 0.433607 -0.091545
C5    C     C_R   0.512689 0.030750 0.556607 0.034748
C6    C     C_R   0.487316 0.969250 0.443393 0.034748
C7    C     C_R   0.362648 0.419277 0.021882 -0.148295
C8    C     C_R   0.637352 0.580723 0.978118 -0.148295
C9    C     C_R   0.379419 0.422757 0.144009 0.416025
C10   C     C_R   0.620581 0.577243 0.855991 0.416025
C11   C     C_R   0.560451 0.532621 0.156946 -0.000806
C12   C     C_R   0.439549 0.467378 0.843054 -0.000806
C13   C     C_R   0.550260 0.528612 0.034177 -0.034353
C14   C     C_R   0.449740 0.471388 0.965823 -0.034353
C15   C     C_R   0.259417 0.500795 0.500082 0.802877
C16   C     C_R   0.740583 0.499205 0.499918 0.802877
C17   C     C_3   0.050410 0.544641 0.606650 -0.191531
C18   C     C_3   0.949590 0.455359 0.393350 -0.191531
C19   C     C_3   0.964499 0.445239 0.580329 -0.197646
C20   C     C_3   0.035501 0.554761 0.419670 -0.197645
C21   C     C_3   0.877147 0.498974 0.499632 -0.039408
C22   C     C_3   0.122853 0.501026 0.500367 -0.039408
C23   C     C_3   0.961477 0.596716 0.525441 0.022604
C24   C     C_3   0.038523 0.403284 0.474559 0.022603
C25   C     C_R   0.486637 0.813843 0.531839 -0.144333
C26   C     C_R   0.513365 0.186157 0.468161 -0.144334
C27   C     C_R   0.489062 0.017503 0.343692 0.262232
C28   C     C_R   0.510945 0.982496 0.656308 0.262231
C29   C     C_R   0.496651 0.125022 0.358000 -0.265826
C30   C     C_R   0.503354 0.874977 0.642000 -0.265823
Cu1   Cu    Cu3+1 0.509400 0.507730 0.615930 0.973574
Cu2   Cu    Cu3+1 0.490600 0.492270 0.384070 0.973574
H1    H     H_    0.932925 0.399832 0.645101 0.159995
H2    H     H_    0.067075 0.600168 0.354898 0.159995
H3    H     H_    0.093653 0.581923 0.693382 0.153754
H4    H     H_    0.906347 0.418077 0.306618 0.153754
H5    H     H_    0.506029 0.839261 0.718530 0.163856
H6    H     H_    0.493977 0.160739 0.281470 0.163854
H7    H     H_    0.364974 0.421944 0.788736 0.153412
H8    H     H_    0.635025 0.578056 0.211264 0.153412
N1    N     N_R   0.523540 0.519360 0.790140 -0.200192
N2    N     N_R   0.476460 0.480640 0.209860 -0.200192
O1    O     O_R   0.506670 0.354460 0.582000 -0.586474
O2    O     O_R   0.493330 0.645540 0.418000 -0.586474
O3    O     O_R   0.490800 0.341410 0.386200 -0.560352
O4    O     O_R   0.509200 0.658590 0.613800 -0.560353
O5    O     O_R   0.324790 0.506500 0.597880 -0.596793
O6    O     O_R   0.675210 0.493500 0.402120 -0.596794
O7    O     O_R   0.308910 0.493440 0.402080 -0.565953
O8    O     O_R   0.691090 0.506560 0.597920 -0.565953
C31   C     C_1   0.916565 0.703318 0.552251 0.220592
N3    N     N_1   0.881143 0.787414 0.573022 -0.291387
C32   C     C_1   0.083435 0.296681 0.447748 0.220592
N4    N     N_1   0.118857 0.212586 0.426978 -0.291386
C33   C     C_1   0.399365 0.802399 0.327868 0.346328
N5    N     N_1   0.348610 0.755108 0.243924 -0.272114
C34   C     C_1   0.600636 0.197603 0.672133 0.346330
N6    N     N_1   0.651391 0.244895 0.756077 -0.272114
N7    N     N_2   0.487082 0.959365 0.228540 -0.434940
H9    H     H_    0.444194 0.996199 0.165466 0.249695
C35   C     C_3   0.607765 0.917864 0.196826 -0.647911
H10   H     H_    0.596260 0.868761 0.108973 0.226365
H11   H     H_    0.645316 0.868808 0.259366 0.243211
H12   H     H_    0.676356 0.982214 0.195219 0.225377
N8    N     N_2   0.512932 0.040633 0.771461 -0.434940
H13   H     H_    0.555831 0.003802 0.834531 0.249697
C36   C     C_3   0.392249 0.082128 0.803185 -0.647921
H14   H     H_    0.403760 0.131230 0.891039 0.226365
H15   H     H_    0.323665 0.017774 0.804796 0.225377
H16   H     H_    0.354688 0.131183 0.740648 0.243216
N9    N     N_2   0.708147 0.630845 0.800286 -0.375824
H17   H     H_    0.797629 0.601185 0.802674 0.242629
C37   C     C_3   0.707954 0.743295 0.827288 -0.661955
H18   H     H_    0.716921 0.774781 0.746352 0.251817
H19   H     H_    0.789737 0.773094 0.889167 0.223492
H20   H     H_    0.619849 0.771948 0.866131 0.203912
N10   N     N_2   0.291854 0.369154 0.199714 -0.375825
H21   H     H_    0.202371 0.398813 0.197325 0.242629
C38   C     C_3   0.292049 0.256704 0.172713 -0.661951
H22   H     H_    0.283082 0.225218 0.253648 0.251818
H23   H     H_    0.380154 0.228053 0.133871 0.203911
H24   H     H_    0.210267 0.226904 0.110834 0.223492
C39   C     C_1   0.254663 0.363604 0.955682 0.200731
N11   N     N_1   0.168497 0.319267 0.902618 -0.289382
C40   C     C_1   0.745337 0.636395 0.044318 0.200729
N12   N     N_1   0.831503 0.680732 0.097382 -0.289383

loop_
_geom_bond_atom_site_label_1
_geom_bond_atom_site_label_2
_ccdc_geom_bond_type
C7    C39   S    
C33   N5    T    
C16   C21   S    
C27   C29   A    
C18   C21   S    
C37   H19   S    
C37   H18   S    
C15   O5    A    
C16   O6    A    
C4    C25   A    
C15   C22   S    
C32   N4    T    
C2    O4    A    
C9    N2    A    
C17   C23   S    
Cu1   O1    S    
C39   N11   T    
C18   C24   S    
C19   C21   S    
C16   O8    A    
C40   N12   T    
C5    C6    A    
C11   N2    A    
C8    C40   S    
Cu2   O3    S    
C35   H11   S    
C1    O1    A    
C7    C14   A    
C6    C27   A    
C2    O2    A    
N8    C36   S    
Cu1   O4    S    
C29   H6    S    
C20   H2    S    
C10   N9    S    
N7    H9    S    
Cu1   O5    S    
C13   C14   A    
C10   N1    A    
Cu2   O6    S    
C11   H8    S    
N10   C38   S    
N7    C35   S    
C36   H14   S    
C4    C6    A    
C19   H1    S    
C38   H23   S    
C24   C32   S    
N10   H21   S    
C31   N3    T    
C30   H5    S    
C36   H15   S    
C35   H12   S    
C12   N1    A    
C5    C28   A    
C23   C31   S    
Cu1   Cu2   S    
C20   C23   S    
Cu2   O2    S    
C9    N10   S    
C3    C34   S    
C20   C22   S    
C21   C23   S    
C4    C33   S    
C1    C26   S    
C37   H20   S    
C22   C24   S    
Cu1   O8    S    
N9    C37   S    
C25   C30   A    
C7    C9    A    
Cu1   N1    S    
C3    C26   A    
C12   C14   A    
C3    C5    A    
C38   H24   S    
C17   C22   S    
C36   H16   S    
C12   H7    S    
C28   C30   A    
C19   C24   S    
N9    H17   S    
C27   N7    S    
C11   C13   A    
C1    O3    A    
C34   N6    T    
C17   C19   S    
C28   N8    S    
C2    C25   S    
C18   C20   S    
C15   O7    A    
C35   H10   S    
Cu2   O7    S    
C38   H22   S    
C8    C13   A    
C26   C29   A    
C8    C10   A    
N8    H13   S    
Cu2   N2    S    
C17   H3    S    
C18   H4    S    
