data_mof_unit_34357.cif
_audit_creation_date              2012-12-10T20:31:59-0500
_audit_creation_method            fapswitch 2.2
_symmetry_space_group_name_H-M    P1
_symmetry_Int_Tables_number       1
_space_group_crystal_system       triclinic
_cell_length_a                    9.930618
_cell_length_b                    10.744501
_cell_length_c                    15.521053
_cell_angle_alpha                 92.111389
_cell_angle_beta                  68.236213
_cell_angle_gamma                 91.266425
_cell_volume                      1536.93593464

loop_
_atom_site_label
_atom_site_type_symbol
_atom_type_description
_atom_site_fract_x
_atom_site_fract_y
_atom_site_fract_z
_atom_type_partial_charge
C1    C     C_R   0.497909 0.739692 0.506738 0.908484
C2    C     C_R   0.737721 0.477169 0.033235 0.162120
C3    C     C_R   0.605948 0.539465 0.084108 0.086155
C4    C     C_R   0.409169 0.500385 0.675711 0.846762
C5    C     C_R   0.831924 0.443665 0.076830 -0.199168
C6    C     C_R   0.787963 0.456848 0.172674 -0.176393
C7    C     C_R   0.570950 0.561239 0.179422 -0.204557
C8    C     C_R   0.379578 0.931892 0.505483 0.103030
C9    C     C_R   0.496579 0.872547 0.515034 -0.269465
C10   C     C_R   0.611405 0.943132 0.526200 0.389933
C11   C     C_R   0.613720 0.069829 0.515043 -0.275145
C12   C     C_R   0.427071 0.529488 0.909976 0.097566
C13   C     C_R   0.496970 0.128319 0.503800 -0.206011
C14   C     C_R   0.378667 0.059572 0.500292 0.133963
C15   C     C_3   0.224900 0.067443 0.567995 -0.279805
C16   C     C_R   0.498310 0.260363 0.501161 0.925950
C17   C     C_3   0.226109 0.927093 0.573126 -0.479105
C18   C     C_R   0.891580 0.562526 0.568262 0.400329
C19   C     C_R   0.964252 0.445230 0.430119 -0.188518
C20   C     C_R   0.106232 0.439464 0.430459 0.489155
C21   C     C_R   0.034479 0.564701 0.567417 0.130590
C22   C     C_3   0.982838 0.539997 0.668276 -0.520399
C23   C     C_R   0.299045 0.597683 0.958787 0.157918
C24   C     C_3   0.830688 0.532752 0.668347 -0.472933
C25   C     C_R   0.591474 0.503210 0.324704 0.901302
C26   C     C_R   0.354363 0.514399 0.776706 -0.046622
C27   C     C_R   0.652902 0.509070 0.224146 -0.053492
C28   C     C_R   0.196900 0.617162 0.917850 -0.200900
C29   C     C_R   0.226174 0.578144 0.826144 -0.211024
C30   C     C_R   0.446310 0.481600 0.821127 -0.242819
C31   C     C_2   0.120714 0.112739 0.526436 1.110504
C32   C     C_R   0.533593 0.515415 0.949872 0.063631
C33   C     C_R   0.506857 0.565591 0.040595 0.052441
C34   C     C_R   0.379473 0.635738 0.086039 -0.162600
C35   C     C_R   0.276955 0.649874 0.046185 -0.216867
C36   C     C_R   0.666929 0.454499 0.901670 -0.211499
C37   C     C_R   0.769216 0.440582 0.941372 -0.221702
H1    H     H_    0.180780 0.704039 0.083472 0.162165
H2    H     H_    0.000212 0.621969 0.708762 0.206569
H3    H     H_    0.784651 0.436829 0.678024 0.199718
H4    H     H_    0.758958 0.606302 0.712991 0.253971
H5    H     H_    0.855513 0.420274 0.206730 0.173276
H6    H     H_    0.869413 0.392826 0.901798 0.154525
H7    H     H_    0.098701 0.668898 0.954853 0.149601
H8    H     H_    0.153250 0.603750 0.792718 0.151558
H9    H     H_    0.536334 0.423551 0.781909 0.141238
H10   H     H_    0.356512 0.683200 0.152202 0.170367
H11   H     H_    0.696437 0.414167 0.833233 0.153796
H12   H     H_    0.933922 0.398228 0.037948 0.154047
H13   H     H_    0.575804 0.827314 0.697506 0.339009
H14   H     H_    0.025510 0.082820 0.433142 0.378514
H15   H     H_    0.330099 0.378504 0.189482 0.385692
H16   H     H_    0.703438 0.123786 0.521011 0.224569
H17   H     H_    0.215652 0.117030 0.634228 0.142081
H18   H     H_    0.217520 0.895344 0.642420 0.185140
H19   H     H_    0.154043 0.875258 0.543669 0.259323
H20   H     H_    0.937042 0.400710 0.374961 0.196624
H21   H     H_    0.021613 0.449906 0.683115 0.236338
H22   H     H_    0.473464 0.608279 0.222614 0.182326
N1    N     N_R   0.856900 0.500860 0.500610 -0.149111
N2    N     N_R   0.142540 0.500820 0.500610 -0.172119
O1    O     O_R   0.385310 0.683210 0.499990 -0.626112
O2    O     O_2   0.805346 0.986453 0.608821 -0.315675
O3    O     O_3   0.657990 0.781260 0.651457 -0.561904
O4    O     O_2   0.043552 0.201857 0.562733 -0.652585
O5    O     O_R   0.108800 0.050865 0.448680 -0.721574
O6    O     O_2   0.342702 0.283462 0.352665 -0.266300
O7    O     O_2   0.133113 0.246568 0.310969 -0.339156
O8    O     O_3   0.290979 0.437026 0.243593 -0.593857
O9    O     O_R   0.614650 0.683240 0.500000 -0.525219
O10   O     O_R   0.319830 0.499970 0.632240 -0.633891
O11   O     O_R   0.549170 0.500000 0.632250 -0.600683
O12   O     O_R   0.385350 0.316760 0.500000 -0.572755
O13   O     O_R   0.614690 0.316790 0.500010 -0.629462
O14   O     O_R   0.450830 0.500000 0.367750 -0.540397
O15   O     O_R   0.680170 0.500030 0.367760 -0.635762
O16   O     O_2   0.859299 0.819856 0.489752 -0.270202
S1    S     S_3+6 0.740109 0.883511 0.568244 0.014209
S2    S     S_3+6 0.222426 0.346335 0.335606 0.033795
Zn1   Zn    Zn3+2 0.346870 0.499980 0.499990 1.022460
Zn2   Zn    Zn3+2 0.653130 0.500020 0.500010 1.015047

loop_
_geom_bond_atom_site_label_1
_geom_bond_atom_site_label_2
_ccdc_geom_bond_type
C31   O5    S    
C18   C21   A    
H13   O3    S    
C19   C20   A    
C1    O1    A    
C10   S1    S    
O16   S1    D    
C19   H20   S    
C12   C23   A    
C18   C24   S    
C32   C36   A    
O1    Zn1   S    
C36   C37   A    
C3    C7    A    
C5    C6    A    
C3    C33   A    
N2    Zn1   S    
C7    C27   A    
C31   O4    D    
C34   C35   A    
C20   N2    A    
O9    Zn2   S    
H15   O8    S    
C8    C9    A    
O14   Zn1   S    
C17   H18   S    
C21   N2    A    
O11   Zn2   S    
C11   H16   S    
O7    S2    D    
C13   C14   A    
C12   C32   A    
C24   H4    S    
C5    H12   S    
C7    H22   S    
O10   Zn1   S    
C16   O12   A    
C15   H17   S    
C35   H1    S    
C1    C9    S    
C28   H7    S    
C29   H8    S    
C25   O14   A    
H14   O5    S    
C37   H6    S    
N1    Zn2   S    
C6    C27   A    
C33   C34   A    
O6    S2    D    
C23   C28   A    
C17   H19   S    
C18   N1    A    
C26   C30   A    
C23   C35   A    
C16   O13   A    
O8    S2    S    
C2    C5    A    
O13   Zn2   S    
C4    O11   A    
C9    C10   A    
C15   C17   S    
C28   C29   A    
C8    C14   A    
C20   S2    S    
C12   C30   A    
O3    S1    S    
C30   H9    S    
C8    C17   S    
O15   Zn2   S    
C22   H21   S    
C4    C26   S    
C15   C31   S    
C19   N1    A    
C25   C27   S    
C1    O9    A    
C25   O15   A    
C32   C33   A    
C2    C3    A    
C11   C13   A    
C2    C37   A    
C22   H2    S    
C24   H3    S    
O12   Zn1   S    
C36   H11   S    
C22   C24   S    
C10   C11   A    
C26   C29   A    
C6    H5    S    
C13   C16   S    
C14   C15   S    
C34   H10   S    
C21   C22   S    
C4    O10   A    
O2    S1    D    
