data_mof_unit_47771.cif
_audit_creation_date              2012-12-10T18:49:24-0500
_audit_creation_method            fapswitch 2.2
_symmetry_space_group_name_H-M    P1
_symmetry_Int_Tables_number       1
_space_group_crystal_system       triclinic
_cell_length_a                    9.924471
_cell_length_b                    10.640858
_cell_length_c                    13.652094
_cell_angle_alpha                 90.782565
_cell_angle_beta                  84.004507
_cell_angle_gamma                 90.275138
_cell_volume                      1433.69975434

loop_
_atom_site_label
_atom_site_type_symbol
_atom_type_description
_atom_site_fract_x
_atom_site_fract_y
_atom_site_fract_z
_atom_type_partial_charge
C1    C     C_R   0.499773 0.739523 0.502488 0.882067
C2    C     C_R   0.920576 0.566068 0.570658 0.255361
C3    C     C_1   0.540630 0.501386 0.211809 -0.214445
C4    C     C_1   0.459370 0.498612 0.788191 -0.214428
C5    C     C_2   0.558652 0.504268 0.020580 0.196583
C6    C     C_2   0.441348 0.495725 0.979420 0.196579
C7    C     C_1   0.446504 0.497137 0.875459 0.013780
C8    C     C_1   0.553497 0.502858 0.124540 0.013783
C9    C     C_R   0.586402 0.931533 0.431676 -0.227708
C10   C     C_R   0.413610 0.068472 0.568341 -0.227728
C11   C     C_R   0.587701 0.060850 0.426865 0.194147
C12   C     C_R   0.500227 0.260479 0.497520 0.882090
C13   C     C_R   0.412292 0.939154 0.573141 0.194144
C14   C     C_3   0.158062 0.361684 0.347180 -0.834956
C15   C     C_3   0.841934 0.638289 0.652833 -0.834975
C16   C     C_3   0.304540 0.484048 0.038711 -0.925892
C17   C     C_3   0.695460 0.515945 0.961289 -0.925894
C18   C     C_3   0.678287 0.124486 0.346445 -0.888680
C19   C     C_3   0.321653 0.875513 0.653530 -0.888667
C20   C     C_R   0.500538 0.127904 0.496476 -0.074782
C21   C     C_R   0.499467 0.872100 0.503538 -0.074789
C22   C     C_R   0.476595 0.500012 0.685204 0.897802
C23   C     C_R   0.523405 0.499987 0.314796 0.897828
C24   C     C_R   0.936199 0.434721 0.430151 -0.121426
C25   C     C_R   0.063800 0.565278 0.569850 -0.121445
C26   C     C_R   0.079423 0.433928 0.429343 0.255356
H1    H     H_    0.887719 0.383894 0.374169 0.143435
H2    H     H_    0.797790 0.572498 0.709816 0.248449
H3    H     H_    0.221796 0.478606 0.989871 0.247624
H4    H     H_    0.300953 0.397456 0.083441 0.242052
H5    H     H_    0.286042 0.567136 0.088333 0.244593
H6    H     H_    0.778205 0.521382 0.010129 0.247624
H7    H     H_    0.713957 0.432860 0.911664 0.244592
H8    H     H_    0.699049 0.602540 0.916562 0.242054
H9    H     H_    0.759539 0.177738 0.378812 0.252356
H10   H     H_    0.727713 0.055363 0.292668 0.232963
H11   H     H_    0.617903 0.189495 0.305558 0.226829
H12   H     H_    0.112278 0.616104 0.625833 0.143443
H13   H     H_    0.240430 0.822267 0.621123 0.252360
H14   H     H_    0.381999 0.810494 0.694440 0.226831
H15   H     H_    0.272183 0.944628 0.707294 0.232960
H16   H     H_    0.651320 0.876472 0.378595 0.156539
H17   H     H_    0.348698 0.123532 0.621425 0.156533
H18   H     H_    0.091409 0.296261 0.310084 0.194651
H19   H     H_    0.202294 0.427461 0.290218 0.248492
H20   H     H_    0.236915 0.303108 0.374734 0.269985
H21   H     H_    0.908566 0.703778 0.689886 0.194670
H22   H     H_    0.763004 0.696793 0.625305 0.270030
N1    N     N_R   0.142790 0.500030 0.500020 -0.096561
N2    N     N_R   0.857210 0.499970 0.499980 -0.096565
O1    O     O_R   0.385380 0.683250 0.500010 -0.606270
O2    O     O_R   0.614620 0.316750 0.499990 -0.606270
O3    O     O_R   0.614710 0.683220 0.500000 -0.629057
O4    O     O_R   0.385290 0.316780 0.500000 -0.629041
O5    O     O_R   0.368830 0.499990 0.640350 -0.611963
O6    O     O_R   0.631170 0.500010 0.359650 -0.611957
O7    O     O_R   0.598160 0.499960 0.640350 -0.610974
O8    O     O_R   0.401840 0.500040 0.359650 -0.610970
Zn1   Zn    Zn3+2 0.346870 0.500020 0.500000 0.943428
Zn2   Zn    Zn3+2 0.653130 0.499980 0.500000 0.943427

loop_
_geom_bond_atom_site_label_1
_geom_bond_atom_site_label_2
_ccdc_geom_bond_type
C5    C8    S    
C11   C18   S    
C1    C21   S    
C6    C7    S    
O5    Zn1   S    
C25   H12   S    
C23   O8    A    
C6    C16   S    
C4    C22   S    
C18   H9    S    
C10   H17   S    
C3    C23   S    
N1    Zn1   S    
C24   H1    S    
C15   H21   S    
N2    Zn2   S    
C12   C20   S    
C22   O7    A    
O8    Zn1   S    
C13   C21   A    
C23   O6    A    
C14   H20   S    
C14   C26   S    
C16   H5    S    
C2    C15   S    
C9    C11   A    
C9    C21   A    
C9    H16   S    
C22   O5    A    
C17   H7    S    
C15   H22   S    
C4    C7    T    
C19   H13   S    
C12   O2    A    
O3    Zn2   S    
C24   C26   A    
C2    C25   A    
O4    Zn1   S    
C24   N2    A    
C5    C6    D    
C25   N1    A    
C11   C20   A    
O1    Zn1   S    
C17   H8    S    
C13   C19   S    
C16   H4    S    
C15   H2    S    
O6    Zn2   S    
C5    C17   S    
C14   H18   S    
C3    C8    T    
C19   H14   S    
C26   N1    A    
C17   H6    S    
C1    O3    A    
O7    Zn2   S    
C1    O1    A    
C2    N2    A    
O2    Zn2   S    
C14   H19   S    
C16   H3    S    
C18   H10   S    
C18   H11   S    
C12   O4    A    
C19   H15   S    
C10   C20   A    
C10   C13   A    
