data_mof_unit_32425.cif
_audit_creation_date              2012-12-10T17:56:44-0500
_audit_creation_method            fapswitch 2.2
_symmetry_space_group_name_H-M    P1
_symmetry_Int_Tables_number       1
_space_group_crystal_system       triclinic
_cell_length_a                    10.982289
_cell_length_b                    9.509985
_cell_length_c                    10.84928
_cell_angle_alpha                 87.659491
_cell_angle_beta                  90.595275
_cell_angle_gamma                 89.078071
_cell_volume                      1131.95299203

loop_
_atom_site_label
_atom_site_type_symbol
_atom_type_description
_atom_site_fract_x
_atom_site_fract_y
_atom_site_fract_z
_atom_type_partial_charge
C1    C     C_R   0.262437 0.500623 0.508675 0.926272
C2    C     C_R   0.738344 0.498883 0.497250 0.911211
C3    C     C_R   0.935768 0.625624 0.484367 0.335706
C4    C     C_R   0.060956 0.628904 0.503359 0.364860
C5    C     C_R   0.426083 0.080610 0.421273 0.025628
C6    C     C_R   0.574286 0.070386 0.577542 0.022323
C7    C     C_R   0.426231 0.932416 0.420063 0.376846
C8    C     C_R   0.574364 0.922482 0.579276 0.375435
C9    C     C_R   0.517322 0.502940 0.263475 0.860160
C10   C     C_R   0.498722 0.497060 0.739065 0.882310
C11   C     C_R   0.528287 0.772283 0.091130 0.349154
C12   C     C_R   0.381360 0.716382 0.888854 0.306059
C13   C     C_R   0.465839 0.882266 0.026878 -0.144149
C14   C     C_R   0.384642 0.852352 0.932551 -0.149309
C15   C     C_R   0.461971 0.611242 0.939142 -0.047431
C16   C     C_R   0.511586 0.631774 0.056390 -0.041859
C17   C     C_R   0.543379 0.510398 0.129958 -0.188280
C18   C     C_R   0.501520 0.491685 0.875554 -0.173009
C19   C     C_R   0.580535 0.388142 0.070867 0.231378
C20   C     C_R   0.567097 0.382621 0.942426 0.215882
C21   C     C_R   0.066748 0.374274 0.541977 0.218025
C22   C     C_R   0.940423 0.370265 0.525068 0.236156
C23   C     C_R   0.872919 0.497115 0.498892 -0.324063
C24   C     C_R   0.128785 0.501901 0.520216 -0.314296
Cu1   Cu    Cu3+1 0.500000 0.640660 0.500000 1.110065
Cu2   Cu    Cu3+1 0.500000 0.359340 0.500000 1.061448
H1    H     H_    0.476912 0.989984 0.053069 0.208345
H2    H     H_    0.325912 0.934827 0.892329 0.209343
H3    H     H_    0.367249 0.141969 0.358322 0.175480
H4    H     H_    0.635074 0.123476 0.637290 0.214879
N1    N     N_R   0.500000 0.852070 0.500000 -0.220811
N2    N     N_R   0.500000 0.147940 0.500000 -0.217373
O1    O     O_R   0.319640 0.618740 0.499990 -0.508872
O2    O     O_R   0.680360 0.618740 0.500010 -0.517230
O3    O     O_R   0.319620 0.381170 0.499990 -0.568482
O4    O     O_R   0.680380 0.381170 0.500010 -0.553884
O5    O     O_R   0.500000 0.618810 0.319650 -0.549140
O6    O     O_R   0.500000 0.618810 0.680350 -0.559467
O7    O     O_R   0.499970 0.381240 0.319640 -0.569161
O8    O     O_R   0.500030 0.381240 0.680360 -0.562250
Br1   Br    Br    0.665780 0.236738 0.162665 -0.326209
Br2   Br    Br    0.647053 0.229190 0.863824 -0.393765
Br3   Br    Br    0.657648 0.823731 0.199113 -0.310227
Br4   Br    Br    0.245913 0.669509 0.787844 -0.398676
Br5   Br    Br    0.149154 0.206018 0.611867 -0.293998
Br6   Br    Br    0.868563 0.185155 0.531207 -0.243089
Cl1   Cl    Cl    0.864179 0.786659 0.433029 -0.361750
Cl2   Cl    Cl    0.125372 0.797357 0.518570 -0.366124
Br7   Br    Br    0.321430 0.853216 0.300346 -0.387753
Br8   Br    Br    0.683723 0.830665 0.696984 -0.326309

loop_
_geom_bond_atom_site_label_1
_geom_bond_atom_site_label_2
_ccdc_geom_bond_type
Cu1   N1    S    
C15   C18   A    
C6    N2    A    
C11   Br3   S    
Cu1   O6    S    
C11   C16   A    
C20   Br2   S    
C19   C20   A    
C1    C24   S    
C12   C15   A    
Cu1   O2    S    
C10   O6    A    
C5    N2    A    
Cu1   O5    S    
C2    O2    A    
C9    O5    A    
C7    Br7   S    
C1    O1    A    
C12   Br4   S    
C21   C22   A    
Cu2   N2    S    
C11   C13   A    
Cu2   O8    S    
C10   C18   S    
C21   Br5   S    
C9    C17   S    
C22   Br6   S    
C12   C14   A    
C5    H3    S    
C4    C24   A    
Cu2   O7    S    
C7    N1    A    
C19   Br1   S    
C2    O4    A    
C15   C16   A    
C8    Br8   S    
Cu2   O3    S    
C9    O7    A    
C1    O3    A    
C18   C20   A    
C10   O8    A    
C4    Cl2   S    
C21   C24   A    
C3    Cl1   S    
C2    C23   S    
C5    C7    A    
Cu2   O4    S    
C22   C23   A    
C17   C19   A    
C6    C8    A    
C14   H2    S    
Cu1   Cu2   S    
C13   C14   A    
C8    N1    A    
C3    C23   A    
C6    H4    S    
C13   H1    S    
C3    C4    A    
Cu1   O1    S    
C16   C17   A    
