data_mof_unit_56667.cif
_audit_creation_date              2012-12-10T18:51:35-0500
_audit_creation_method            fapswitch 2.2
_symmetry_space_group_name_H-M    P1
_symmetry_Int_Tables_number       1
_space_group_crystal_system       triclinic
_cell_length_a                    10.598015
_cell_length_b                    10.12354
_cell_length_c                    10.549681
_cell_angle_alpha                 87.709471
_cell_angle_beta                  92.566548
_cell_angle_gamma                 88.486355
_cell_volume                      1129.37930695

loop_
_atom_site_label
_atom_site_type_symbol
_atom_type_description
_atom_site_fract_x
_atom_site_fract_y
_atom_site_fract_z
_atom_type_partial_charge
C1    C     C_R   0.871558 0.497880 0.499880 -0.464799
C2    C     C_3   0.405499 0.427546 0.042026 -0.227106
C3    C     C_3   0.393445 0.550134 0.950723 0.157563
C4    C     C_3   0.610222 0.443921 0.049725 0.145025
C5    C     C_3   0.502246 0.494008 0.877357 -0.019379
C6    C     C_3   0.501814 0.502183 0.122468 -0.015838
C7    C     C_R   0.576082 0.062497 0.582046 0.103924
C8    C     C_R   0.405690 0.935905 0.436611 0.078705
C9    C     C_R   0.420889 0.076308 0.417500 0.128509
C10   C     C_R   0.596663 0.925973 0.556564 0.109849
C11   C     C_R   0.072239 0.446675 0.603976 0.482347
C12   C     C_R   0.128299 0.501191 0.497949 -0.477954
C13   C     C_R   0.927702 0.552021 0.393536 0.465862
C14   C     C_R   0.942804 0.448830 0.606433 0.427092
C15   C     C_R   0.057050 0.549776 0.391228 0.440206
C16   C     C_3   0.615480 0.104264 0.712989 -0.448165
C17   C     C_3   0.737232 0.183382 0.718056 -0.189869
C18   C     C_3   0.838121 0.128864 0.816984 -0.847098
C19   C     C_3   0.281682 0.881170 0.387824 -0.364777
C20   C     C_3   0.292567 0.813266 0.260864 -0.251330
C21   C     C_3   0.180873 0.847996 0.168030 -0.844105
C22   C     C_3   0.364488 0.140680 0.292977 -0.389436
C23   C     C_R   0.261035 0.501092 0.497709 1.031330
C24   C     C_3   0.242724 0.225853 0.302395 -0.265786
C25   C     C_3   0.143490 0.204825 0.195901 -0.981783
C26   C     C_3   0.732863 0.889723 0.532206 -0.335549
C27   C     C_3   0.810169 0.829806 0.648242 -0.306424
C28   C     C_3   0.951546 0.833545 0.624476 -0.914791
C29   C     C_3   0.266910 0.607900 0.893023 -0.422509
C30   C     C_3   0.154220 0.548454 0.960181 -0.308708
C31   C     C_3   0.028888 0.617147 0.917861 -0.754758
C32   C     C_3   0.731693 0.382686 0.114742 -0.361562
C33   C     C_3   0.722333 0.233141 0.144323 -0.352159
C34   C     C_R   0.738924 0.498874 0.501400 1.053766
C35   C     C_3   0.796256 0.187285 0.266399 -0.876372
C36   C     C_R   0.499843 0.501675 0.258015 0.860659
C37   C     C_R   0.501711 0.497704 0.741915 0.871717
C38   C     C_3   0.489797 0.624919 0.032737 -0.203133
C39   C     C_3   0.514378 0.370519 0.966398 -0.193056
C40   C     C_3   0.600101 0.567020 0.958408 -0.206477
F1    F     F_    0.142880 0.392449 0.704251 -0.659147
F2    F     F_    0.857860 0.610266 0.294642 -0.668136
F3    F     F_    0.887888 0.414104 0.715474 -0.702603
F4    F     F_    0.111805 0.588027 0.283402 -0.703061
H1    H     H_    0.480899 0.729085 0.060169 0.142067
H2    H     H_    0.535972 0.160713 0.750754 0.208180
H3    H     H_    0.623965 0.015464 0.778421 0.174969
H4    H     H_    0.089600 0.840087 0.215242 0.310574
H5    H     H_    0.189280 0.948278 0.124713 0.238490
H6    H     H_    0.181883 0.779624 0.089758 0.266568
H7    H     H_    0.380956 0.840260 0.214866 0.186925
H8    H     H_    0.295766 0.705563 0.277931 0.295573
H9    H     H_    0.238338 0.820001 0.461578 0.218179
H10   H     H_    0.209928 0.963052 0.375870 0.195292
H11   H     H_    0.187654 0.192546 0.103476 0.268413
H12   H     H_    0.523667 0.266686 0.938106 0.138410
H13   H     H_    0.087283 0.117087 0.219448 0.273525
H14   H     H_    0.078168 0.292559 0.185320 0.277540
H15   H     H_    0.198985 0.206654 0.394909 0.235420
H16   H     H_    0.267096 0.331096 0.292056 0.251085
H17   H     H_    0.436656 0.193406 0.242087 0.197596
H18   H     H_    0.346311 0.063766 0.224095 0.193330
H19   H     H_    0.975633 0.765951 0.548637 0.266214
H20   H     H_    0.979095 0.935048 0.595461 0.261140
H21   H     H_    0.007963 0.804080 0.712125 0.249368
H22   H     H_    0.791975 0.885467 0.733526 0.221571
H23   H     H_    0.680421 0.622191 0.920560 0.151932
H24   H     H_    0.783743 0.726812 0.671009 0.244340
H25   H     H_    0.738862 0.827270 0.448954 0.247336
H26   H     H_    0.779642 0.981424 0.499615 0.170257
H27   H     H_    0.031002 0.724583 0.934393 0.235337
H28   H     H_    0.008340 0.602457 0.815890 0.290415
H29   H     H_    0.951748 0.573966 0.972368 0.267861
H30   H     H_    0.148303 0.441782 0.940405 0.275180
H31   H     H_    0.168449 0.555986 0.064213 0.267547
H32   H     H_    0.266221 0.716970 0.900387 0.185544
H33   H     H_    0.258490 0.587362 0.790596 0.241278
H34   H     H_    0.328014 0.369267 0.079895 0.153488
H35   H     H_    0.888594 0.235597 0.274424 0.267443
H36   H     H_    0.741371 0.211255 0.349731 0.284465
H37   H     H_    0.812427 0.078404 0.267754 0.243530
H38   H     H_    0.623134 0.204428 0.153598 0.220686
H39   H     H_    0.759576 0.179063 0.064493 0.220772
H40   H     H_    0.812073 0.399948 0.052713 0.203277
H41   H     H_    0.750172 0.434247 0.203678 0.258727
H42   H     H_    0.798221 0.063437 0.890894 0.223274
H43   H     H_    0.912571 0.072387 0.770041 0.264795
H44   H     H_    0.884774 0.211342 0.865104 0.300777
H45   H     H_    0.780251 0.188958 0.623946 0.238126
H46   H     H_    0.710550 0.284903 0.743769 0.270934
N1    N     N_R   0.500000 0.857200 0.500000 -0.127295
N2    N     N_R   0.500000 0.142800 0.500000 -0.124529
O1    O     O_R   0.316770 0.614620 0.499990 -0.642302
O2    O     O_R   0.683230 0.385380 0.500010 -0.645988
O3    O     O_R   0.683230 0.614620 0.500010 -0.609376
O4    O     O_R   0.316770 0.385380 0.499990 -0.602700
O5    O     O_R   0.499970 0.614650 0.313950 -0.629347
O6    O     O_R   0.500030 0.385350 0.686050 -0.625048
O7    O     O_R   0.500030 0.614650 0.686050 -0.628056
O8    O     O_R   0.499970 0.385350 0.313950 -0.642600
Zn1   Zn    Zn3+2 0.500000 0.653120 0.500000 0.941418
Zn2   Zn    Zn3+2 0.500000 0.346880 0.500000 0.937394

loop_
_geom_bond_atom_site_label_1
_geom_bond_atom_site_label_2
_ccdc_geom_bond_type
C7    C10   A    
O4    Zn2   S    
C19   C20   S    
C21   H5    S    
C35   H37   S    
C29   H32   S    
C12   C23   S    
C26   C27   S    
C18   H42   S    
C15   F4    S    
C20   H7    S    
C5    C37   S    
C30   C31   S    
C30   H30   S    
C11   C14   A    
C9    C22   S    
C31   H29   S    
C32   H41   S    
C35   H36   S    
C23   O4    A    
C9    N2    A    
C3    C29   S    
C37   O6    A    
C38   H1    S    
C27   H24   S    
C2    C39   S    
C4    C40   S    
C3    C38   S    
C16   C17   S    
C40   H23   S    
C12   C15   A    
C11   F1    S    
C36   O5    A    
C33   H38   S    
N2    Zn2   S    
C21   H4    S    
C19   H9    S    
C31   H27   S    
C2    C6    S    
C25   H13   S    
N1    Zn1   S    
C16   H3    S    
C13   F2    S    
C1    C34   S    
C32   H40   S    
C8    C19   S    
C25   H11   S    
C17   H45   S    
C24   C25   S    
C4    C6    S    
C16   H2    S    
C8    C9    A    
O6    Zn2   S    
C18   H44   S    
C23   O1    A    
C29   C30   S    
C2    H34   S    
C22   H18   S    
C39   H12   S    
C4    C39   S    
C24   H16   S    
O8    Zn2   S    
C17   C18   S    
C36   O8    A    
C8    N1    A    
C34   O3    A    
C33   H39   S    
C4    C32   S    
C28   H20   S    
C19   H10   S    
C31   H28   S    
O7    Zn1   S    
C10   N1    A    
C5    C39   S    
C26   H26   S    
C22   C24   S    
C1    C13   A    
C25   H14   S    
O1    Zn1   S    
C37   O7    A    
C7    C16   S    
C17   H46   S    
C34   O2    A    
C3    C5    S    
C11   C12   A    
C18   H43   S    
C32   C33   S    
C13   C15   A    
C28   H21   S    
C20   H8    S    
C27   H22   S    
C22   H17   S    
C38   C40   S    
C30   H31   S    
C10   C26   S    
C24   H15   S    
C7    N2    A    
C35   H35   S    
C33   C35   S    
C6    C36   S    
C2    C3    S    
C21   H6    S    
C28   H19   S    
C29   H33   S    
C20   C21   S    
O2    Zn2   S    
C5    C40   S    
C27   C28   S    
C26   H25   S    
C1    C14   A    
C6    C38   S    
O5    Zn1   S    
O3    Zn1   S    
C14   F3    S    
