data_mof_unit_51810.cif
_audit_creation_date              2013-03-05T16:48:40-0500
_audit_creation_method            fapswitch 2.2
_symmetry_space_group_name_H-M    P1
_symmetry_Int_Tables_number       1
_space_group_crystal_system       triclinic
_cell_length_a                    10.943224
_cell_length_b                    10.879976
_cell_length_c                    10.579278
_cell_angle_alpha                 91.52079
_cell_angle_beta                  91.768607
_cell_angle_gamma                 89.761111
_cell_volume                      1258.539567

loop_
_atom_site_label
_atom_site_type_symbol
_atom_site_description
_atom_site_fract_x
_atom_site_fract_y
_atom_site_fract_z
_atom_type_partial_charge
O1    O     O_R   0.499990 0.319650 0.605810 -0.586089
O2    O     O_R   0.500010 0.680350 0.394190 -0.586094
O3    O     O_R   0.499990 0.319640 0.394190 -0.572170
O4    O     O_R   0.500010 0.680360 0.605810 -0.572153
C1    C     C_R   0.499629 0.261820 0.498023 0.799452
C2    C     C_R   0.500373 0.738179 0.501976 0.799463
O5    O     O_R   0.319640 0.500010 0.605810 -0.491461
O6    O     O_R   0.680360 0.499990 0.394190 -0.491456
O7    O     O_R   0.319650 0.500010 0.394190 -0.600058
O8    O     O_R   0.680350 0.499990 0.605810 -0.600048
C3    C     C_R   0.261706 0.504099 0.497988 0.824342
C4    C     C_R   0.738293 0.495898 0.502013 0.824360
Cu1   Cu    Cu3+1 0.500000 0.500000 0.625300 1.053039
Cu2   Cu    Cu3+1 0.500000 0.500000 0.374700 1.053028
C5    C     C_R   0.172385 0.583719 0.084763 -0.212068
C6    C     C_R   0.827606 0.416227 0.915231 -0.212111
H1    H     H_    0.195837 0.672181 0.048408 0.180843
H2    H     H_    0.804154 0.327765 0.951578 0.180849
C7    C     C_R   0.135521 0.578213 0.208201 -0.197636
C8    C     C_R   0.864474 0.421745 0.791793 -0.197620
H3    H     H_    0.129543 0.662707 0.264368 0.175233
H4    H     H_    0.870452 0.337255 0.735619 0.175235
C9    C     C_R   0.105703 0.465355 0.259485 0.031499
C10   C     C_R   0.894298 0.534605 0.740519 0.031512
C11   C     C_R   0.108981 0.356109 0.184201 0.299232
C12   C     C_R   0.891025 0.643846 0.815815 0.299285
C13   C     C_R   0.144780 0.363517 0.058417 -0.303641
C14   C     C_R   0.855220 0.636427 0.941594 -0.303600
H5    H     H_    0.148525 0.280732 0.999653 0.207779
H6    H     H_    0.851475 0.719211 0.000361 0.207743
C15   C     C_R   0.178489 0.476641 0.009149 0.336677
C16   C     C_R   0.821501 0.523303 0.990852 0.336693
C17   C     C_R   0.931697 0.458380 0.395720 -0.113839
C18   C     C_R   0.068300 0.541611 0.604282 -0.113844
H7    H     H_    0.880721 0.423672 0.315054 0.227772
H8    H     H_    0.119275 0.576324 0.684946 0.227770
C19   C     C_R   0.872367 0.492463 0.505707 -0.117583
C20   C     C_R   0.127631 0.507528 0.494295 -0.117577
C21   C     C_R   0.942917 0.529891 0.613094 0.069910
C22   C     C_R   0.057082 0.470091 0.386909 0.069930
H9    H     H_    0.570972 0.203226 0.908338 0.129739
H10   H     H_    0.429011 0.796764 0.091645 0.129750
C23   C     C_R   0.445375 0.184607 0.059385 -0.139839
C24   C     C_R   0.554634 0.815453 0.940633 -0.139870
H11   H     H_    0.367559 0.216728 0.003950 0.153196
H12   H     H_    0.632458 0.783388 0.996092 0.153201
C25   C     C_R   0.430929 0.149559 0.184337 -0.091596
C26   C     C_R   0.569088 0.850504 0.815683 -0.091705
H13   H     H_    0.341101 0.153426 0.224466 0.168801
H14   H     H_    0.658930 0.846696 0.775581 0.168818
C27   C     C_R   0.532033 0.107576 0.256264 0.097538
C28   C     C_R   0.467975 0.892421 0.743728 0.097527
C29   C     C_R   0.646915 0.099339 0.200968 -0.098951
C30   C     C_R   0.353075 0.900585 0.798988 -0.098903
H15   H     H_    0.725113 0.064158 0.254066 0.164025
H16   H     H_    0.274867 0.935709 0.745863 0.164035
C31   C     C_R   0.660688 0.133657 0.075850 -0.065937
C32   C     C_R   0.339292 0.866264 0.924103 -0.065852
H17   H     H_    0.749183 0.125818 0.033407 0.160271
H18   H     H_    0.250781 0.874049 0.966519 0.160326
C33   C     C_R   0.560110 0.176655 0.005201 -0.114689
C34   C     C_R   0.439880 0.823335 0.994784 -0.114738
C35   C     C_R   0.517230 0.929876 0.390175 -0.206632
C36   C     C_R   0.482777 0.070123 0.609821 -0.206627
H19   H     H_    0.530862 0.876125 0.303892 0.165883
H20   H     H_    0.469143 0.123873 0.696105 0.165892
C37   C     C_R   0.501555 0.871917 0.505124 -0.061944
C38   C     C_R   0.498450 0.128083 0.494872 -0.061954
C39   C     C_R   0.484819 0.943250 0.617056 -0.002770
C40   C     C_R   0.515190 0.056749 0.382939 -0.002756
N1    N     N_1   0.500010 0.499990 0.186410 -0.097388
N2    N     N_1   0.499990 0.500010 0.813590 -0.097391
C41   C     C_1   0.499460 0.500143 0.072320 0.157436
C42   C     C_1   0.500540 0.499858 0.927680 0.157438
N3    N     N_R   0.221652 0.483420 0.883586 0.087517
O9    O     O_R   0.264713 0.586852 0.845064 -0.408713
O10   O     O_R   0.227065 0.385315 0.810786 -0.383949
N4    N     N_R   0.778332 0.516520 0.116413 0.087508
O11   O     O_R   0.735276 0.413083 0.154934 -0.408691
O12   O     O_R   0.772901 0.614626 0.189205 -0.383969
N5    N     N_R   0.077523 0.238523 0.233385 0.108191
O13   O     O_R   0.094290 0.216319 0.352943 -0.365074
O14   O     O_R   0.041844 0.149170 0.156876 -0.366399
N6    N     N_R   0.922522 0.761428 0.766648 0.108196
O15   O     O_R   0.905632 0.783683 0.647116 -0.365110
O16   O     O_R   0.958351 0.850704 0.843159 -0.366434

loop_
_geom_bond_atom_site_label_1
_geom_bond_atom_site_label_2
_geom_bond_distance
_ccdc_geom_bond_type
C32   C34   1.397274 A    
C35   H19   1.084817 S    
C13   H5    1.082118 S    
Cu2   N1    1.991973 S    
H9    C33   1.082275 S    
O7    Cu2   1.990670 S    
N5    O13   1.301293 A    
C25   H13   1.082952 S    
C5    C7    1.381502 A    
O1    C1    1.287577 A    
C36   C38   1.400146 A    
C7    H3    1.084147 S    
C10   C12   1.414070 A    
N4    O12   1.301757 A    
C31   H17   1.082064 S    
C32   H18   1.082056 S    
C9    C22   1.464023 S    
C4    C19   1.466857 S    
C10   C21   1.464020 S    
C41   C42   1.530524 S    
O4    Cu1   1.978550 S    
C28   C39   1.480233 S    
C8    C10   1.399338 A    
C24   H12   1.081103 S    
O6    Cu2   1.978121 S    
C27   C40   1.480254 S    
H10   C34   1.082272 S    
C6    C8    1.381526 A    
C26   H14   1.082946 S    
Cu1   Cu2   2.651167 S    
C11   N5    1.440835 S    
O2    C2    1.287568 A    
C1    C38   1.454662 S    
N5    O14   1.301760 A    
C28   C30   1.404407 A    
O5    C3    1.289528 A    
C30   H16   1.083214 S    
C29   H15   1.083221 S    
C35   C37   1.400146 A    
C17   C22   1.384779 A    
C13   C15   1.404381 A    
C18   C21   1.384771 A    
C14   C16   1.404369 A    
N6    O15   1.301294 A    
N2    C42   1.206861 T    
N1    C41   1.206860 T    
C29   C31   1.397575 A    
N4    O11   1.302000 A    
C25   C27   1.405009 A    
C24   C34   1.397655 A    
C17   C19   1.390937 A    
C27   C29   1.404423 A    
C36   H20   1.084817 S    
C3    C20   1.466870 S    
C7    C9    1.399344 A    
N3    O9    1.301978 A    
N3    O10   1.301770 A    
C15   N3    1.427355 S    
C35   C40   1.384579 A    
O5    Cu1   1.978122 S    
O6    C4    1.289532 A    
C36   C39   1.384571 A    
C5    C15   1.398128 A    
C23   H11   1.081104 S    
O3    Cu2   1.978551 S    
O8    C4    1.284530 A    
O4    C2    1.280385 A    
C2    C37   1.454659 S    
C8    H4    1.084148 S    
O7    C3    1.284539 A    
C11   C13   1.403163 A    
C23   C33   1.397653 A    
C30   C32   1.397574 A    
C5    H1    1.080708 S    
C12   N6    1.440842 S    
C18   C20   1.390944 A    
N6    O16   1.301627 A    
O3    C1    1.280378 A    
O8    Cu1   1.990669 S    
C31   C33   1.397273 A    
Cu1   N2    1.991974 S    
C6    C16   1.398155 A    
C12   C14   1.403145 A    
C14   H6    1.082121 S    
C19   C21   1.405876 A    
C20   C22   1.405881 A    
C17   H7    1.066445 S    
C18   H8    1.066448 S    
C9    C11   1.414059 A    
O2    Cu2   1.967558 S    
C16   N4    1.427353 S    
C26   C28   1.405001 A    
O1    Cu1   1.967558 S    
C6    H2    1.080666 S    
C38   C40   1.414776 A    
C37   C39   1.414760 A    
C23   C25   1.399276 A    
C24   C26   1.399279 A    
