data_mof_unit_60644.cif
_audit_creation_date              2012-12-10T16:55:51-0500
_audit_creation_method            fapswitch 2.2
_symmetry_space_group_name_H-M    P1
_symmetry_Int_Tables_number       1
_space_group_crystal_system       triclinic
_cell_length_a                    14.350491
_cell_length_b                    10.951117
_cell_length_c                    9.682748
_cell_angle_alpha                 90.488468
_cell_angle_beta                  89.998678
_cell_angle_gamma                 90.10007
_cell_volume                      1521.62404854

loop_
_atom_site_label
_atom_site_type_symbol
_atom_type_description
_atom_site_fract_x
_atom_site_fract_y
_atom_site_fract_z
_atom_type_partial_charge
C1    C     C_R   0.499991 0.265071 0.499096 0.875065
C2    C     C_1   0.771285 0.499982 0.499937 -0.182931
C3    C     C_2   0.504176 0.930943 0.386572 -0.265376
C4    C     C_2   0.508828 0.866564 0.503321 -0.363310
C5    C     C_2   0.513906 0.065029 0.383749 0.440866
C6    C     C_2   0.495306 0.132634 0.497561 -0.342880
C7    C     C_2   0.448413 0.426895 0.921417 -0.059939
C8    C     C_2   0.450834 0.424046 0.077127 -0.028561
C9    C     C_R   0.331042 0.499972 0.500035 0.801968
C10   C     C_R   0.501597 0.734735 0.500637 0.875343
C11   C     C_R   0.668963 0.500009 0.499961 0.812503
C12   C     C_1   0.228725 0.499934 0.500048 -0.191274
C13   C     C_1   0.143333 0.499919 0.500031 -0.006044
C14   C     C_1   0.042702 0.499920 0.499997 0.007608
C15   C     C_1   0.957310 0.499933 0.499968 0.008701
C16   C     C_1   0.856678 0.499958 0.499942 -0.002152
Cu1   Cu    Cu3+1 0.500020 0.500020 0.638630 0.941785
Cu2   Cu    Cu3+1 0.499980 0.499980 0.361370 0.966420
H1    H     H_    0.495424 0.883996 0.288086 0.170512
H2    H     H_    0.521911 0.909143 0.602854 0.151533
H3    H     H_    0.472662 0.091400 0.593148 0.103777
H4    H     H_    0.401607 0.363698 0.869381 0.152306
H5    H     H_    0.545811 0.556055 0.894534 0.193330
H6    H     H_    0.408578 0.355561 0.127892 0.162750
H7    H     H_    0.536860 0.566383 0.106637 0.189584
N1    N     N_2   0.499070 0.498660 0.846910 -0.272819
N2    N     N_2   0.499040 0.498630 0.153040 -0.273616
O1    O     O_R   0.500010 0.321960 0.617040 -0.587743
O2    O     O_R   0.499990 0.321920 0.382900 -0.506039
O3    O     O_R   0.376070 0.500020 0.617100 -0.556234
O4    O     O_R   0.376040 0.499980 0.382950 -0.560520
O5    O     O_R   0.500010 0.678080 0.617100 -0.576545
O6    O     O_R   0.499990 0.678040 0.382960 -0.575930
O7    O     O_R   0.623960 0.500020 0.617050 -0.558026
O8    O     O_R   0.623930 0.499980 0.382900 -0.550543
O9    O     O_3   0.540396 0.121375 0.262406 -0.707511
H8    H     H_    0.552758 0.057826 0.191240 0.313945

loop_
_geom_bond_atom_site_label_1
_geom_bond_atom_site_label_2
_ccdc_geom_bond_type
C1    O1    A    
C3    H1    S    
H7    N2    S    
C7    H4    S    
C2    C16   T    
Cu2   O8    S    
C1    O2    A    
Cu1   Cu2   S    
C3    C4    D    
C7    C8    S    
Cu2   O2    S    
C13   C14   S    
Cu1   O3    S    
Cu1   O1    S    
C7    N1    D    
C9    O3    A    
Cu1   N1    S    
C11   O8    A    
O9    H8    S    
C8    H6    S    
C10   O6    A    
C5    C6    D    
Cu2   O6    S    
C9    C12   S    
C9    O4    A    
C4    C10   S    
C15   C16   S    
C4    H2    S    
C5    O9    S    
C10   O5    A    
C12   C13   T    
Cu1   O7    S    
H5    N1    S    
Cu1   O5    S    
C8    N2    D    
C14   C15   T    
C2    C11   S    
Cu2   O4    S    
C6    H3    S    
C11   O7    A    
Cu2   N2    S    
C1    C6    S    
C3    C5    S    
