data_mof_unit_14858.cif
_audit_creation_date              2012-12-10T16:51:32-0500
_audit_creation_method            fapswitch 2.2
_symmetry_space_group_name_H-M    P1
_symmetry_Int_Tables_number       1
_space_group_crystal_system       triclinic
_cell_length_a                    7.845622
_cell_length_b                    8.614152
_cell_length_c                    12.168102
_cell_angle_alpha                 92.627746
_cell_angle_beta                  101.186651
_cell_angle_gamma                 93.599396
_cell_volume                      803.730216072

loop_
_atom_site_label
_atom_site_type_symbol
_atom_type_description
_atom_site_fract_x
_atom_site_fract_y
_atom_site_fract_z
_atom_type_partial_charge
C1    C     C_R   0.044933 0.794147 0.501333 0.831680
C2    C     C_R   0.160006 0.512035 0.833107 -0.225619
C3    C     C_2   0.054499 0.954401 0.484755 0.319628
C4    C     C_R   0.106371 0.506320 0.710639 0.854741
C5    C     C_2   0.955247 0.048443 0.534995 -0.161789
C6    C     C_R   0.958289 0.205972 0.506187 0.973279
C7    C     C_R   0.892876 0.489812 0.290176 0.846273
C8    C     C_R   0.812728 0.295200 0.004920 -0.188321
C9    C     C_R   0.832262 0.462579 0.171062 -0.058058
C10   C     C_R   0.069472 0.600593 0.901274 0.566277
C11   C     C_R   0.147914 0.633692 0.014809 -0.249825
C12   C     C_R   0.403211 0.500041 0.988681 0.078503
C13   C     C_R   0.314495 0.590796 0.056060 -0.301299
C14   C     C_3   0.861168 0.005205 0.630134 -0.432072
C15   C     C_3   0.917906 0.115098 0.734348 -0.924840
C16   C     C_3   0.365225 0.315800 0.309207 -0.076195
C17   C     C_3   0.852048 0.774466 0.910478 -0.355351
C18   C     C_3   0.044173 0.962570 0.296086 -0.369546
C19   C     C_R   0.315618 0.446317 0.880451 0.018389
C20   C     C_R   0.574738 0.457413 0.026358 0.107099
C21   C     C_R   0.646376 0.344144 0.963659 0.201536
C22   C     C_R   0.548704 0.277986 0.862958 -0.239783
C23   C     C_R   0.385800 0.328477 0.821607 -0.171610
C24   C     C_R   0.676722 0.523282 0.125769 -0.292826
C25   C     C_R   0.904330 0.352061 0.109732 -0.198454
H1    H     H_    0.025511 0.303541 0.145069 0.130760
H2    H     H_    0.872818 0.232971 0.719611 0.291784
H3    H     H_    0.858197 0.068059 0.801993 0.233012
H4    H     H_    0.718306 0.007348 0.599963 0.243676
H5    H     H_    0.887594 0.888938 0.661576 0.254476
H6    H     H_    0.342979 0.426050 0.266565 0.124737
H7    H     H_    0.241929 0.259507 0.323536 0.209843
H8    H     H_    0.417780 0.235700 0.252172 0.122636
H9    H     H_    0.956849 0.870665 0.928755 0.150012
H10   H     H_    0.809064 0.740523 0.988215 0.179824
H11   H     H_    0.737916 0.818726 0.855380 0.193423
H12   H     H_    0.529266 0.629310 0.579779 0.151682
H13   H     H_    0.916675 0.015855 0.283890 0.150503
H14   H     H_    0.023825 0.833871 0.280480 0.163976
H15   H     H_    0.114967 0.006930 0.232058 0.173236
H16   H     H_    0.597885 0.187530 0.815651 0.150754
H17   H     H_    0.868280 0.207351 0.959763 0.126268
H18   H     H_    0.634749 0.617406 0.173227 0.144808
H19   H     H_    0.366829 0.624914 0.142906 0.160741
H20   H     H_    0.083648 0.695697 0.072491 0.144464
H21   H     H_    0.314238 0.271567 0.743824 0.171088
H22   H     H_    0.061398 0.121374 0.762366 0.251244
N1    N     N_2   0.434800 0.456690 0.470850 0.123835
N2    N     N_2   0.565200 0.543310 0.529150 -0.076682
O1    O     O_R   0.893060 0.738880 0.507150 -0.661219
O2    O     O_3   0.903549 0.644067 0.854073 -0.585216
O3    O     O_3   0.145489 0.004618 0.403881 -0.586223
O4    O     O_R   0.172250 0.711130 0.488470 -0.607660
O5    O     O_R   0.944700 0.520730 0.667600 -0.567734
O6    O     O_R   0.223890 0.492980 0.648920 -0.636969
O7    O     O_R   0.827750 0.288870 0.511530 -0.567640
O8    O     O_R   0.106940 0.261120 0.492850 -0.586655
O9    O     O_R   0.776110 0.507020 0.351080 -0.571902
O10   O     O_R   0.055300 0.479270 0.332400 -0.659284
O11   O     O_3   0.486931 0.340864 0.409990 -0.482129
Zn1   Zn    Zn3+2 0.813580 0.518530 0.512470 1.012867
Zn2   Zn    Zn3+2 0.186420 0.481470 0.487530 0.977844

loop_
_geom_bond_atom_site_label_1
_geom_bond_atom_site_label_2
_ccdc_geom_bond_type
C2    C4    S    
C3    O3    S    
C9    C24   A    
O5    Zn1   S    
C16   H8    S    
C16   H7    S    
H12   N2    S    
C1    O1    A    
C7    O9    A    
N1    Zn2   S    
C15   H22   S    
C18   H14   S    
C17   O2    S    
O9    Zn1   S    
C8    C21   A    
C18   H13   S    
C18   O3    S    
O8    Zn2   S    
C23   H21   S    
C21   C22   A    
C12   C13   A    
C16   H6    S    
C8    C25   A    
C11   C13   A    
C6    O8    A    
C12   C20   A    
C15   H3    S    
C14   H5    S    
C10   O2    S    
C12   C19   A    
C7    O10   A    
N1    N2    D    
C17   H11   S    
C8    H17   S    
N1    O11   S    
C22   C23   A    
C4    O6    A    
C16   O11   S    
C5    C6    S    
C11   H20   S    
C22   H16   S    
N2    Zn1   S    
C17   H9    S    
C14   H4    S    
C9    C25   A    
C2    C10   A    
O6    Zn2   S    
C3    C5    D    
O1    Zn1   S    
C20   C21   A    
C19   C23   A    
O4    Zn2   S    
C10   C11   A    
C6    O7    A    
C2    C19   A    
C7    C9    S    
C24   H18   S    
C1    O4    A    
O7    Zn1   S    
O10   Zn2   S    
C18   H15   S    
C17   H10   S    
C4    O5    A    
C25   H1    S    
C14   C15   S    
C5    C14   S    
C13   H19   S    
C20   C24   A    
C15   H2    S    
C1    C3    S    
