data_mof_unit_64773.cif
_audit_creation_date              2012-12-10T17:04:19-0500
_audit_creation_method            fapswitch 2.2
_symmetry_space_group_name_H-M    P1
_symmetry_Int_Tables_number       1
_space_group_crystal_system       triclinic
_cell_length_a                    15.110512
_cell_length_b                    15.105711
_cell_length_c                    16.032409
_cell_angle_alpha                 89.384473
_cell_angle_beta                  90.142491
_cell_angle_gamma                 90.422527
_cell_volume                      3659.15667502

loop_
_atom_site_label
_atom_site_type_symbol
_atom_type_description
_atom_site_fract_x
_atom_site_fract_y
_atom_site_fract_z
_atom_type_partial_charge
C1    C     C_R   0.259840 0.485270 0.488424 0.831943
C2    C     C_R   0.979578 0.459174 0.497659 0.124094
C3    C     C_R   0.019540 0.543413 0.510516 0.007482
C4    C     C_R   0.739846 0.514994 0.512137 0.819496
C5    C     C_R   0.111970 0.550428 0.506391 -0.150032
C6    C     C_R   0.123111 0.394778 0.472579 -0.163873
C7    C     C_R   0.031650 0.385813 0.478425 -0.145738
C8    C     C_R   0.507868 0.163506 0.526936 -0.160699
C9    C     C_R   0.480507 0.835632 0.475806 -0.153987
C10   C     C_R   0.480846 0.969050 0.390296 -0.224362
C11   C     C_R   0.475532 0.876847 0.396270 0.444233
C12   C     C_1   0.481748 0.520835 0.886497 0.146252
C13   C     C_R   0.487436 0.886807 0.547692 -0.272123
C14   C     C_R   0.493498 0.978832 0.541306 0.108486
C15   C     C_R   0.490650 0.020062 0.462074 0.093624
C16   C     C_R   0.510875 0.259801 0.515287 0.871819
C17   C     C_R   0.497774 0.111824 0.455537 -0.271095
C18   C     C_R   0.509595 0.122411 0.607022 0.428252
C19   C     C_R   0.503265 0.030026 0.612957 -0.235231
C20   C     C_R   0.486026 0.739778 0.484920 0.890142
C21   C     C_R   0.512819 0.488631 0.277242 0.852544
C22   C     C_R   0.487369 0.511266 0.722637 0.826365
C23   C     C_1   0.523051 0.476818 0.113666 -0.031199
C24   C     C_1   0.518727 0.482863 0.188360 -0.072374
C25   C     C_2   0.527551 0.468865 0.024387 0.476574
C26   C     C_2   0.480784 0.524945 0.976218 -0.316039
C27   C     C_1   0.483677 0.516670 0.811602 -0.054632
C28   C     C_R   0.163513 0.476725 0.487696 -0.057800
C29   C     C_R   0.835412 0.523234 0.516520 -0.073391
C30   C     C_R   0.965607 0.617758 0.526402 0.441271
C31   C     C_R   0.873777 0.606672 0.527767 -0.241276
C32   C     C_R   0.887888 0.449519 0.502662 -0.238043
H1    H     H_    0.504969 0.997736 0.673597 0.194080
H2    H     H_    0.145116 0.612924 0.516954 0.224478
H3    H     H_    0.162465 0.337190 0.458560 0.172445
H4    H     H_    0.958053 0.855910 0.566560 0.400172
H5    H     H_    0.831375 0.663065 0.537655 0.204910
H6    H     H_    0.495707 0.143385 0.394442 0.182306
H7    H     H_    0.491461 0.854578 0.608385 0.170237
H8    H     H_    0.001580 0.321539 0.467832 0.154922
H9    H     H_    0.856938 0.385505 0.492392 0.156682
H10   H     H_    0.440590 0.575729 0.004659 0.152997
H11   H     H_    0.610821 0.268501 0.759733 0.413675
H12   H     H_    0.478100 0.001169 0.329596 0.204691
H13   H     H_    0.417992 0.843229 0.177256 0.395505
H14   H     H_    0.677012 0.280334 0.031704 0.397827
O1    O     O_3   0.500000 0.500000 0.500000 -0.520971
O2    O     O_R   0.461330 0.435620 0.316920 -0.636537
O3    O     O_R   0.434750 0.558200 0.677930 -0.640985
O4    O     O_R   0.559650 0.545720 0.316320 -0.597822
O5    O     O_R   0.544270 0.460460 0.688830 -0.596063
O6    O     O_2   0.446915 0.256630 0.697423 -0.307837
O7    O     O_2   0.494276 0.124525 0.774814 -0.250271
O8    O     O_3   0.615736 0.227500 0.712179 -0.503879
O9    O     O_2   0.549149 0.778967 0.277657 -0.262671
O10   O     O_2   0.396997 0.740782 0.317903 -0.318325
O11   O     O_3   0.422691 0.881823 0.226665 -0.534611
O12   O     O_R   0.559890 0.307360 0.561630 -0.575330
O13   O     O_2   0.536666 0.323257 0.931540 -0.253444
O14   O     O_2   0.663670 0.425063 0.927300 -0.279614
O15   O     O_3   0.642297 0.326495 0.060013 -0.531728
O16   O     O_2   0.069945 0.723646 0.617185 -0.278842
O17   O     O_2   0.060908 0.754355 0.466918 -0.276830
O18   O     O_3   0.927690 0.798126 0.559493 -0.541438
O19   O     O_R   0.434610 0.697530 0.534530 -0.632492
O20   O     O_R   0.307380 0.433810 0.444990 -0.636568
O21   O     O_R   0.698130 0.561300 0.458860 -0.636226
O22   O     O_R   0.296270 0.542620 0.535390 -0.624757
O23   O     O_R   0.698230 0.462280 0.560770 -0.630069
O24   O     O_R   0.461480 0.296280 0.460320 -0.650602
O25   O     O_R   0.544020 0.698820 0.443520 -0.593444
S1    S     S_3+6 0.513879 0.183537 0.700939 0.072484
S2    S     S_3+6 0.461324 0.815748 0.303403 0.044056
S3    S     S_3+6 0.593779 0.384254 0.982405 0.064694
S4    S     S_3+6 0.009393 0.725452 0.542666 0.035213
Zn1   Zn    Zn3+2 0.574310 0.433680 0.576480 1.054424
Zn2   Zn    Zn3+2 0.433700 0.417860 0.431740 1.018075
Zn3   Zn    Zn3+2 0.574160 0.575160 0.430870 1.060197
Zn4   Zn    Zn3+2 0.417840 0.573310 0.560900 1.036601

loop_
_geom_bond_atom_site_label_1
_geom_bond_atom_site_label_2
_ccdc_geom_bond_type
O19   Zn4   S    
C2    C7    A    
O1    Zn4   S    
O12   Zn1   S    
H13   O11   S    
O1    Zn1   S    
C18   C19   A    
C29   C32   A    
C10   C15   A    
C30   C31   A    
C1    O22   A    
C6    H3    S    
O23   Zn1   S    
C2    C32   A    
C25   S3    S    
O11   S2    S    
C9    C13   A    
C21   O4    A    
C9    C20   S    
C6    C28   A    
C1    C28   S    
C7    H8    S    
C20   O25   A    
C4    C29   S    
C21   O2    A    
O22   Zn4   S    
C8    C16   S    
C13   C14   A    
O24   Zn2   S    
O21   Zn3   S    
O4    Zn3   S    
C4    O23   A    
C18   S1    S    
C12   C27   T    
C10   H12   S    
C20   O19   A    
C16   O24   A    
O5    Zn1   S    
C19   H1    S    
H14   O15   S    
C25   C26   D    
C8    C18   A    
C31   H5    S    
C12   C26   S    
O2    Zn2   S    
C3    C30   A    
O6    S1    D    
C5    C28   A    
H11   O8    S    
C32   H9    S    
C5    H2    S    
C1    O20   A    
C16   O12   A    
C9    C11   A    
O13   S3    D    
C22   O3    A    
C22   C27   S    
C11   S2    S    
O16   S4    D    
O1    Zn2   S    
C26   H10   S    
C15   C17   A    
O20   Zn2   S    
O10   S2    D    
C14   C19   A    
C3    C5    A    
C4    O21   A    
C6    C7    A    
O15   S3    S    
C8    C17   A    
C2    C3    A    
C29   C31   A    
C30   S4    S    
O17   S4    D    
O14   S3    D    
O18   S4    S    
C17   H6    S    
C23   C25   S    
C13   H7    S    
C10   C11   A    
C23   C24   T    
O9    S2    D    
O3    Zn4   S    
O8    S1    S    
C21   C24   S    
C14   C15   A    
O1    Zn3   S    
H4    O18   S    
O7    S1    D    
O25   Zn3   S    
C22   O5    A    
