data_mof_unit_35176.cif
_audit_creation_date              2012-10-26T20:18:36-0400
_audit_creation_method            fapswitch 2.2
_symmetry_space_group_name_H-M    P1
_symmetry_Int_Tables_number       1
_space_group_crystal_system       triclinic
_cell_length_a                    10.798043
_cell_length_b                    11.040528
_cell_length_c                    9.914107
_cell_angle_alpha                 111.179887
_cell_angle_beta                  97.514886
_cell_angle_gamma                 93.357061
_cell_volume                      1085.43666116

loop_
_atom_site_label
_atom_site_type_symbol
_atom_type_description
_atom_site_fract_x
_atom_site_fract_y
_atom_site_fract_z
_atom_type_partial_charge
C1    C     C_R   0.491667 0.254159 0.440103 0.538897
C2    C     C_2   0.492561 0.483483 0.918580 0.100896
C3    C     C_R   0.259925 0.499716 0.501592 0.544164
C4    C     C_R   0.510177 0.746378 0.560215 0.562057
C5    C     C_R   0.739079 0.498344 0.497955 0.547608
C6    C     C_3   0.068398 0.384501 0.554555 0.039175
C7    C     C_3   0.920711 0.366793 0.514418 -0.077802
C8    C     C_3   0.090010 0.632516 0.611657 -0.119682
C9    C     C_3   0.049985 0.476313 0.346562 -0.242004
C10   C     C_3   0.120974 0.497780 0.504196 0.081048
C11   C     C_3   0.107269 0.419213 0.723222 -0.387481
C12   C     C_3   0.875824 0.494288 0.496046 0.038279
C13   C     C_3   0.131638 0.750919 0.573558 -0.424720
C14   C     C_3   0.533245 0.979745 0.755885 -0.409965
C15   C     C_3   0.404969 0.361878 0.823460 -0.307547
C16   C     C_3   0.118514 0.252458 0.473667 -0.396171
C17   C     C_3   0.850544 0.312648 0.611342 -0.397723
C18   C     C_3   0.946970 0.622124 0.618100 -0.211963
C19   C     C_3   0.909725 0.492503 0.348173 -0.264917
C20   C     C_2   0.489075 0.114225 0.406052 -0.151650
C21   C     C_2   0.523815 0.071847 0.513596 -0.176385
C22   C     C_2   0.519274 0.887973 0.596678 -0.019431
C23   C     C_2   0.513880 0.932639 0.486734 -0.143328
C24   C     C_2   0.505784 0.516054 0.081533 -0.004555
Cu1   Cu    Cu3+1 0.522160 0.521810 0.644910 0.888163
Cu2   Cu    Cu3+1 0.477840 0.478190 0.355090 0.902250
H1    H     H_    0.905700 0.708574 0.606114 0.113543
H2    H     H_    0.046184 0.485390 0.789194 0.113310
H3    H     H_    0.102963 0.330430 0.751175 0.118369
H4    H     H_    0.201618 0.472252 0.766357 0.149793
H5    H     H_    0.888948 0.584814 0.333071 0.122296
H6    H     H_    0.232508 0.754141 0.562216 0.151671
H7    H     H_    0.074967 0.749322 0.471106 0.131960
H8    H     H_    0.119327 0.842842 0.663371 0.119565
H9    H     H_    0.531242 0.926954 0.831964 0.152591
H10   H     H_    0.624245 0.043170 0.788619 0.118585
H11   H     H_    0.454433 0.041039 0.770863 0.118010
H12   H     H_    0.499920 0.865027 0.373158 0.139411
H13   H     H_    0.457090 0.046091 0.294186 0.100172
H14   H     H_    0.318685 0.355090 0.870345 0.054005
H15   H     H_    0.365485 0.359641 0.716447 0.200907
H16   H     H_    0.453268 0.273915 0.813014 0.100077
H17   H     H_    0.567029 0.602487 0.155133 0.124753
H18   H     H_    0.076751 0.173555 0.504168 0.119334
H19   H     H_    0.094793 0.220723 0.352937 0.109296
H20   H     H_    0.221975 0.258922 0.502320 0.135346
H21   H     H_    0.848737 0.388233 0.720913 0.158485
H22   H     H_    0.752281 0.274600 0.556891 0.152710
H23   H     H_    0.558263 0.141471 0.623679 0.160237
H24   H     H_    0.894671 0.228783 0.625389 0.113713
H25   H     H_    0.142100 0.654326 0.723624 0.138799
H26   H     H_    0.853143 0.410533 0.253967 0.126730
H27   H     H_    0.613311 0.635394 0.935911 0.183635
H28   H     H_    0.397311 0.355767 0.072022 0.212309
H29   H     H_    0.894348 0.287237 0.404003 0.121914
H30   H     H_    0.931893 0.625060 0.727870 0.116613
H31   H     H_    0.091179 0.546246 0.302682 0.138790
H32   H     H_    0.059646 0.377622 0.267333 0.115789
N1    N     N_2   0.444530 0.445420 0.137360 -0.361478
N2    N     N_2   0.555520 0.554510 0.862630 -0.346342
O1    O     O_R   0.511820 0.332340 0.577400 -0.516186
O2    O     O_R   0.474400 0.295500 0.332650 -0.493481
O3    O     O_R   0.336400 0.518400 0.622370 -0.522347
O4    O     O_R   0.298980 0.481560 0.377620 -0.498593
O5    O     O_R   0.525600 0.704500 0.667350 -0.493424
O6    O     O_R   0.488180 0.667660 0.422600 -0.504603
O7    O     O_R   0.701020 0.518440 0.622380 -0.500718
O8    O     O_R   0.663600 0.481600 0.377630 -0.502761

loop_
_geom_bond_atom_site_label_1
_geom_bond_atom_site_label_2
_ccdc_geom_bond_type
C16   H19   S    
C6    C10   S    
C17   H24   S    
C13   H7    S    
C8    C13   S    
Cu1   N2    S    
C3    O3    A    
C23   H12   S    
C4    C22   S    
C9    C10   S    
C16   H18   S    
C13   H6    S    
Cu1   O7    S    
C17   H22   S    
C7    H29   S    
C5    O7    A    
C19   H5    S    
C1    O2    A    
C14   C22   S    
C21   H23   S    
Cu2   O2    S    
Cu2   O8    S    
C13   H8    S    
C3    C10   S    
Cu1   O1    S    
C3    O4    A    
C14   H11   S    
C4    O6    A    
C2    C15   S    
C8    H25   S    
C11   H3    S    
C6    C7    S    
C11   H2    S    
C11   H4    S    
C5    O8    A    
C12   C19   S    
H27   N2    S    
C9    H31   S    
H28   N1    S    
C24   N1    D    
C21   C23   S    
C2    C24   S    
C4    O5    A    
C2    N2    D    
C15   H14   S    
C6    C16   S    
Cu2   O6    S    
C6    C11   S    
Cu1   O5    S    
C20   C21   D    
C15   H15   S    
C5    C12   S    
C8    C10   S    
C9    H32   S    
Cu1   O3    S    
C12   C18   S    
C14   H9    S    
C24   H17   S    
C20   H13   S    
Cu2   O4    S    
C18   H30   S    
C16   H20   S    
C14   H10   S    
C7    C12   S    
C7    C17   S    
Cu1   Cu2   S    
C22   C23   D    
C19   H26   S    
C9    C19   S    
C8    C18   S    
C18   H1    S    
C17   H21   S    
C15   H16   S    
Cu2   N1    S    
C1    C20   S    
C1    O1    A    
