data_mof_unit_66019.cif
_audit_creation_date              2012-12-10T17:34:24-0500
_audit_creation_method            fapswitch 2.2
_symmetry_space_group_name_H-M    P1
_symmetry_Int_Tables_number       1
_space_group_crystal_system       triclinic
_cell_length_a                    12.47165
_cell_length_b                    13.073186
_cell_length_c                    14.29339
_cell_angle_alpha                 75.758821
_cell_angle_beta                  100.521453
_cell_angle_gamma                 116.575145
_cell_volume                      2013.09966377

loop_
_atom_site_label
_atom_site_type_symbol
_atom_type_description
_atom_site_fract_x
_atom_site_fract_y
_atom_site_fract_z
_atom_type_partial_charge
C1    C     C_R   0.855477 0.286173 0.503463 0.823386
C2    C     C_1   0.999917 0.501875 0.228656 -0.126819
C3    C     C_R   0.271447 0.042539 0.427622 -0.127517
C4    C     C_R   0.227923 0.838425 0.478003 -0.061080
C5    C     C_R   0.810043 0.071781 0.544234 0.139780
C6    C     C_R   0.727212 0.961643 0.582679 -0.167610
C7    C     C_R   0.605419 0.935435 0.576706 0.104164
C8    C     C_R   0.560826 0.013804 0.514337 0.036190
C9    C     C_R   0.645379 0.127934 0.477853 0.009186
C10   C     C_R   0.436149 0.984230 0.487714 0.060647
C11   C     C_R   0.395874 0.071632 0.441779 0.090338
C12   C     C_R   0.002821 0.503226 0.668199 0.837638
C13   C     C_R   0.480380 0.182590 0.403877 0.109423
C14   C     C_R   0.601872 0.205994 0.415554 -0.181391
C15   C     C_R   0.351574 0.868538 0.495299 -0.171355
C16   C     C_R   0.187952 0.926645 0.448412 -0.157415
C17   C     C_R   0.771285 0.161020 0.504029 -0.136845
C18   C     C_R   0.320791 0.300761 0.635006 -0.247547
C19   C     C_R   0.768871 0.665359 0.389842 0.361712
C20   C     C_R   0.698401 0.720071 0.396378 -0.229089
C21   C     C_R   0.601519 0.661274 0.452025 -0.168750
C22   C     C_R   0.564001 0.542344 0.490709 0.000084
C23   C     C_R   0.144741 0.714332 0.487662 0.814561
C24   C     C_R   0.652195 0.496931 0.503252 0.209115
C25   C     C_R   0.447460 0.472771 0.526287 -0.032284
C26   C     C_R   0.425507 0.363939 0.586313 0.091267
C27   C     C_R   0.509333 0.319299 0.601158 -0.236075
C28   C     C_R   0.624493 0.385759 0.569868 0.180067
C29   C     C_R   0.347268 0.501468 0.499938 0.311203
C30   C     C_R   0.235061 0.343663 0.620127 0.099017
C31   C     C_R   0.000001 0.500812 0.331306 0.816844
C32   C     C_1   0.004910 0.504566 0.770716 -0.136913
C33   C     C_1   0.004923 0.504791 0.856221 0.035826
C34   C     C_1   0.003786 0.504395 0.956871 0.042271
C35   C     C_1   0.002438 0.503754 0.042353 0.042457
C36   C     C_1   0.000837 0.502783 0.143055 0.037589
Cu1   Cu    Cu3+1 0.098280 0.475420 0.520190 1.002023
Cu2   Cu    Cu3+1 0.901720 0.524580 0.479810 0.987720
H1    H     H_    0.092846 0.905979 0.435914 0.187259
H2    H     H_    0.485212 0.232802 0.645379 0.184025
H3    H     H_    0.237610 0.107974 0.398110 0.189480
H4    H     H_    0.661411 0.286219 0.373701 0.189455
N1    N     N_R   0.246290 0.438200 0.550780 -0.193453
N2    N     N_R   0.754310 0.561180 0.449760 -0.212429
O1    O     O_R   0.972510 0.318130 0.525390 -0.546309
O2    O     O_R   0.806530 0.359650 0.491290 -0.572519
O3    O     O_R   0.083010 0.479240 0.641000 -0.558895
O4    O     O_R   0.917030 0.520750 0.606900 -0.540597
O5    O     O_R   0.193470 0.640350 0.508710 -0.562655
O6    O     O_R   0.027490 0.681870 0.474610 -0.568830
O7    O     O_R   0.082970 0.479250 0.393100 -0.529703
O8    O     O_R   0.916990 0.520760 0.359000 -0.549577
H5    H     H_    0.306189 0.219668 0.685413 0.166043
I1    I     I_    0.337104 0.614148 0.363381 -0.310014
I2    I     I_    0.896821 0.754859 0.285030 -0.307179
H6    H     H_    0.555089 0.709405 0.463166 0.176856
H7    H     H_    0.718209 0.808136 0.357923 0.178763
I3    I     I_    0.722438 0.307736 0.680938 -0.338456
I4    I     I_    0.432323 0.315639 0.316672 -0.336319
H8    H     H_    0.382703 0.801281 0.507893 0.187307
I5    I     I_    0.988996 0.089377 0.550925 -0.391354
I6    I     I_    0.509608 0.789227 0.683046 -0.353796
H9    H     H_    0.759127 0.897388 0.622896 0.191113
H10   H     H_    0.154951 0.297142 0.658963 0.159963

loop_
_geom_bond_atom_site_label_1
_geom_bond_atom_site_label_2
_ccdc_geom_bond_type
C6    H9    S    
Cu1   N1    S    
C21   H6    S    
C9    C14   A    
C7    I6    S    
Cu2   N2    S    
Cu1   Cu2   S    
Cu2   O6    S    
C28   I3    S    
Cu1   O3    S    
C23   O5    A    
Cu1   O5    S    
C15   H8    S    
C27   H2    S    
C1    C17   S    
C19   C20   A    
C18   C26   A    
C14   H4    S    
C31   O8    A    
C12   O4    A    
C32   C33   T    
C4    C15   A    
C33   C34   S    
C20   H7    S    
C5    I5    S    
C7    C8    A    
C21   C22   A    
C12   C32   S    
C11   C13   A    
C1    O1    A    
C26   C27   A    
C6    C7    A    
C12   O3    A    
C13   I4    S    
C30   N1    A    
Cu2   O8    S    
C9    C17   A    
C4    C16   A    
C30   H10   S    
C10   C15   A    
Cu1   O7    S    
C25   C29   A    
C5    C6    A    
C24   N2    A    
C22   C24   A    
C1    O2    A    
Cu2   O2    S    
C3    C11   A    
C10   C11   A    
C18   C30   A    
Cu1   O1    S    
C19   N2    A    
C5    C17   A    
C20   C21   A    
C8    C9    A    
C8    C10   A    
C34   C35   T    
C29   I1    S    
C2    C36   T    
C27   C28   A    
C4    C23   S    
C19   I2    S    
C3    H3    S    
C23   O6    A    
C16   H1    S    
C18   H5    S    
C25   C26   A    
C13   C14   A    
Cu2   O4    S    
C22   C25   A    
C29   N1    A    
C3    C16   A    
C24   C28   A    
C31   O7    A    
C2    C31   S    
C35   C36   S    
