data_mof_unit_26907.cif
_audit_creation_date              2012-12-10T18:36:16-0500
_audit_creation_method            fapswitch 2.2
_symmetry_space_group_name_H-M    P1
_symmetry_Int_Tables_number       1
_space_group_crystal_system       triclinic
_cell_length_a                    14.962886
_cell_length_b                    15.290248
_cell_length_c                    19.260579
_cell_angle_alpha                 90.529471
_cell_angle_beta                  105.173036
_cell_angle_gamma                 80.2242
_cell_volume                      4188.31670878

loop_
_atom_site_label
_atom_site_type_symbol
_atom_type_description
_atom_site_fract_x
_atom_site_fract_y
_atom_site_fract_z
_atom_type_partial_charge
C1    C     C_R   0.440567 0.663629 0.485907 0.882149
C2    C     C_R   0.545978 0.192736 0.560562 0.080119
C3    C     C_R   0.443893 0.904999 0.515481 -0.011413
C4    C     C_R   0.562734 0.100443 0.556574 0.005306
C5    C     C_R   0.346813 0.942769 0.501182 0.038385
C6    C     C_R   0.654311 0.057834 0.556718 0.047922
C7    C     C_R   0.513617 0.956654 0.545759 0.041592
C8    C     C_R   0.489521 0.049321 0.545062 0.038832
C9    C     C_R   0.394072 0.088092 0.522015 -0.224440
C10   C     C_R   0.608217 0.918040 0.576156 -0.225878
C11   C     C_R   0.322515 0.037275 0.501374 0.209307
C12   C     C_R   0.559897 0.337055 0.513287 0.885725
C13   C     C_R   0.679775 0.967471 0.580679 0.205293
C14   C     C_R   0.843146 0.639005 0.606024 -0.294433
C15   C     C_R   0.151696 0.369530 0.387413 -0.285706
C16   C     C_R   0.501514 0.499932 0.634274 0.895918
C17   C     C_R   0.499840 0.497596 0.366183 0.900700
C18   C     C_R   0.757572 0.610017 0.594620 0.331214
C19   C     C_R   0.245034 0.380643 0.413168 0.337197
C20   C     C_R   0.790669 0.520384 0.500077 -0.089462
C21   C     C_R   0.200056 0.499915 0.483252 -0.088239
C22   C     C_R   0.876218 0.552115 0.506710 -0.033690
C23   C     C_R   0.404377 0.760925 0.478603 -0.161100
C24   C     C_R   0.103226 0.491844 0.457412 -0.033126
C25   C     C_R   0.903250 0.611235 0.562549 0.064112
C26   C     C_R   0.079428 0.425400 0.407625 0.061693
C27   C     C_R   0.938607 0.522036 0.463419 -0.021416
C28   C     C_R   0.030478 0.543480 0.483032 -0.022310
C29   C     C_R   0.045060 0.617787 0.525994 0.185546
C30   C     C_R   0.912861 0.473383 0.400332 0.175090
C31   C     C_R   0.988136 0.644146 0.572400 0.201105
C32   C     C_R   0.983918 0.417811 0.376975 0.200873
C33   C     C_R   0.424669 0.537172 0.732831 0.146770
C34   C     C_R   0.599134 0.242360 0.531288 -0.145203
C35   C     C_R   0.517060 0.563684 0.255466 0.141391
C36   C     C_R   0.423048 0.523045 0.804367 0.177087
C37   C     C_R   0.534986 0.553543 0.187703 0.192688
C38   C     C_R   0.508482 0.490879 0.856420 -0.046165
C39   C     C_R   0.518782 0.475361 0.150168 -0.059202
C40   C     C_R   0.593354 0.465112 0.835688 0.077644
C41   C     C_R   0.503162 0.400432 0.185584 0.065183
C42   C     C_R   0.587872 0.457351 0.761749 0.109708
C43   C     C_R   0.502849 0.405932 0.258865 0.122273
C44   C     C_R   0.505119 0.498609 0.710774 -0.133658
C45   C     C_R   0.279097 0.885410 0.480073 0.206234
C46   C     C_R   0.502726 0.489447 0.291340 -0.119620
C47   C     C_R   0.512473 0.476278 0.072866 0.305596
C48   C     C_R   0.508484 0.484808 0.932273 0.306313
C49   C     C_3   0.341235 0.594225 0.680996 -0.880414
C50   C     C_3   0.515651 0.652852 0.290744 -0.899613
C51   C     C_3   0.017604 0.709074 0.630632 -0.942383
C52   C     C_3   0.958121 0.351382 0.319047 -0.937373
C53   C     C_3   0.316896 0.317824 0.387205 -0.861326
C54   C     C_3   0.698664 0.640682 0.645660 -0.845632
C55   C     C_3   0.092566 0.686934 0.502606 -0.968740
C56   C     C_R   0.712492 0.106133 0.529891 0.198850
C57   C     C_3   0.814716 0.494789 0.349615 -0.911755
C58   C     C_3   0.330216 0.540890 0.824604 -0.871665
C59   C     C_3   0.575365 0.624618 0.157289 -0.876556
C60   C     C_3   0.689270 0.448977 0.891389 -0.399764
C61   C     C_3   0.711328 0.534524 0.929615 -0.341478
C62   C     C_3   0.806646 0.517864 0.985263 -0.881168
C63   C     C_3   0.483260 0.316584 0.144887 -0.369802
C64   C     C_3   0.573889 0.250190 0.147346 -0.316091
C65   C     C_3   0.556351 0.181273 0.089769 -0.868343
C66   C     C_3   0.667867 0.400917 0.738157 -0.892226
C67   C     C_R   0.308105 0.797087 0.461979 0.140849
C68   C     C_3   0.507694 0.322101 0.302448 -0.922533
C69   C     C_3   0.224785 0.088292 0.467319 -0.913953
C70   C     C_3   0.778993 0.923859 0.617477 -0.945665
C71   C     C_3   0.486588 0.235796 0.608940 -0.861788
C72   C     C_3   0.552518 0.800032 0.458823 -0.830986
C73   C     C_3   0.742842 0.254245 0.486957 -0.870886
C74   C     C_3   0.239089 0.747962 0.412331 -0.883174
C75   C     C_3   0.180857 0.910228 0.489518 -0.922158
C76   C     C_3   0.792736 0.057570 0.502172 -0.919338
C77   C     C_R   0.683914 0.199617 0.516268 0.134487
C78   C     C_R   0.469607 0.819060 0.492134 0.095473
H1    H     H_    0.222471 0.547279 0.522769 0.156668
H2    H     H_    0.459037 0.664937 0.318980 0.219465
H3    H     H_    0.584793 0.653949 0.329651 0.251841
H4    H     H_    0.500163 0.709168 0.251147 0.248129
H5    H     H_    0.088612 0.724172 0.634349 0.258303
H6    H     H_    0.966619 0.772379 0.619948 0.243905
H7    H     H_    0.021164 0.679933 0.684075 0.237947
H8    H     H_    0.881878 0.349874 0.300736 0.253906
H9    H     H_    0.981857 0.367096 0.271316 0.243049
H10   H     H_    0.991947 0.283168 0.340381 0.234839
H11   H     H_    0.358397 0.355183 0.363355 0.280131
H12   H     H_    0.770160 0.469032 0.463866 0.164273
H13   H     H_    0.361569 0.272118 0.431594 0.244283
H14   H     H_    0.284293 0.275117 0.344310 0.197313
H15   H     H_    0.626016 0.670153 0.617146 0.265249
H16   H     H_    0.700590 0.584712 0.682311 0.251991
H17   H     H_    0.726629 0.693311 0.680695 0.189073
H18   H     H_    0.049736 0.753956 0.501929 0.257554
H19   H     H_    0.163464 0.686597 0.539319 0.244484
H20   H     H_    0.094606 0.676591 0.446050 0.250781
H21   H     H_    0.819382 0.506885 0.293988 0.252764
H22   H     H_    0.775685 0.439143 0.349493 0.237299
H23   H     H_    0.861568 0.684068 0.648954 0.166050
H24   H     H_    0.773693 0.556929 0.363357 0.246148
H25   H     H_    0.328048 0.489907 0.864531 0.240198
H26   H     H_    0.320152 0.607897 0.847004 0.249914
H27   H     H_    0.269527 0.536700 0.777829 0.243167
H28   H     H_    0.612950 0.598350 0.116833 0.240475
H29   H     H_    0.518378 0.680437 0.132336 0.247666
H30   H     H_    0.628892 0.649845 0.200537 0.241762
H31   H     H_    0.806959 0.468126 0.027050 0.266905
H32   H     H_    0.863500 0.493421 0.958970 0.260078
H33   H     H_    0.820660 0.580757 0.011785 0.251972
H34   H     H_    0.136460 0.317033 0.350519 0.163015
H35   H     H_    0.712163 0.585511 0.889103 0.223094
H36   H     H_    0.657151 0.561662 0.957556 0.233242
H37   H     H_    0.693383 0.395108 0.930684 0.217677
H38   H     H_    0.747596 0.425787 0.866623 0.211391
H39   H     H_    0.501423 0.144457 0.097292 0.257548
H40   H     H_    0.533433 0.214022 0.035243 0.273850
H41   H     H_    0.622274 0.133201 0.093919 0.247690
H42   H     H_    0.630110 0.284949 0.139516 0.235831
H43   H     H_    0.600629 0.214596 0.200527 0.210842
H44   H     H_    0.435456 0.283029 0.166336 0.193400
H45   H     H_    0.374168 0.159024 0.515170 0.168418
H46   H     H_    0.442520 0.334615 0.088401 0.203970
H47   H     H_    0.694728 0.339471 0.772850 0.230425
H48   H     H_    0.645569 0.376930 0.682904 0.244502
H49   H     H_    0.725719 0.438848 0.741422 0.241436
H50   H     H_    0.569498 0.272732 0.299062 0.236857
H51   H     H_    0.517677 0.332428 0.360608 0.230807
H52   H     H_    0.442846 0.293374 0.282651 0.239778
H53   H     H_    0.225209 0.159442 0.456391 0.233442
H54   H     H_    0.195005 0.061317 0.414235 0.247251
H55   H     H_    0.178309 0.087593 0.503489 0.246887
H56   H     H_    0.626747 0.848620 0.593386 0.169775
H57   H     H_    0.780774 0.893120 0.669962 0.241684
H58   H     H_    0.803824 0.870772 0.583756 0.241177
H59   H     H_    0.827841 0.972349 0.629274 0.260427
H60   H     H_    0.419328 0.275764 0.577838 0.257602
H61   H     H_    0.470108 0.185171 0.642454 0.239862
H62   H     H_    0.526296 0.279667 0.646677 0.231693
H63   H     H_    0.569313 0.862190 0.439956 0.235948
H64   H     H_    0.616212 0.762889 0.497031 0.251949
H65   H     H_    0.534690 0.760688 0.410190 0.236773
H66   H     H_    0.768589 0.302871 0.527135 0.254649
H67   H     H_    0.288727 0.552606 0.654922 0.247879
H68   H     H_    0.806780 0.215636 0.475974 0.240157
H69   H     H_    0.700050 0.289687 0.435892 0.232717
H70   H     H_    0.264836 0.728209 0.364382 0.236966
H71   H     H_    0.232756 0.687505 0.439611 0.264852
H72   H     H_    0.168317 0.788960 0.391991 0.247220
H73   H     H_    0.153747 0.850478 0.500770 0.251261
H74   H     H_    0.181506 0.950134 0.537928 0.243547
H75   H     H_    0.131539 0.944837 0.440472 0.246570
H76   H     H_    0.784201 0.079816 0.445754 0.241123
H77   H     H_    0.861119 0.070008 0.536670 0.244184
H78   H     H_    0.307437 0.648191 0.709487 0.241030
H79   H     H_    0.793531 0.985277 0.498532 0.253770
H80   H     H_    0.362967 0.628511 0.639166 0.230217
N1    N     N_R   0.463604 0.553434 0.962082 -0.178209
N2    N     N_R   0.557292 0.407728 0.043018 -0.184906
N3    N     N_R   0.464772 0.548857 0.031026 -0.167539
N4    N     N_R   0.554138 0.411366 0.973608 -0.189267
N5    N     N_R   0.731690 0.552730 0.540620 -0.100637
N6    N     N_R   0.268310 0.447270 0.459380 -0.099719
O1    O     O_R   0.383120 0.605620 0.479520 -0.609454
O2    O     O_R   0.616880 0.394380 0.520480 -0.610076
O3    O     O_R   0.531890 0.639510 0.505590 -0.605662
O4    O     O_R   0.468110 0.360490 0.494410 -0.609546
O5    O     O_R   0.425590 0.483060 0.588820 -0.604779
O6    O     O_R   0.574410 0.516940 0.411180 -0.610585
O7    O     O_R   0.574360 0.516950 0.614890 -0.610208
O8    O     O_R   0.425640 0.483050 0.385110 -0.615343
Zn1   Zn    Zn3+2 0.400660 0.477370 0.482600 0.924263
Zn2   Zn    Zn3+2 0.599340 0.522630 0.517400 0.920952

loop_
_geom_bond_atom_site_label_1
_geom_bond_atom_site_label_2
_ccdc_geom_bond_type
C25   C31   A    
C7    C10   A    
C38   C40   A    
C26   C32   A    
C40   C60   S    
C72   H65   S    
C14   C18   A    
C49   H78   S    
C2    C4    A    
C4    C8    A    
C51   H7    S    
C63   H46   S    
C17   O8    A    
C7    C8    A    
C39   C41   A    
C15   C19   A    
C57   H24   S    
C73   H69   S    
C56   C76   S    
C74   H70   S    
C28   C29   A    
C35   C37   A    
C24   C26   A    
C5    C11   A    
C3    C7    A    
C34   C77   A    
C12   O2    A    
C48   N4    A    
C13   C70   S    
C1    O3    A    
O1    Zn1   S    
C64   H43   S    
C57   H21   S    
C30   C57   S    
C33   C36   A    
C66   H49   S    
N5    Zn2   S    
C23   C67   A    
C73   C77   S    
C32   C52   S    
C54   H15   S    
C72   C78   S    
C16   O5    A    
C62   H33   S    
C75   H73   S    
C8    C9    A    
C22   C25   A    
C45   C67   A    
C65   H40   S    
N1    N3    A    
C74   H71   S    
C16   C44   S    
C38   C48   S    
C2    C34   A    
C40   C42   A    
C14   C25   A    
C21   N6    A    
C27   C30   A    
C70   H58   S    
C41   C43   A    
C55   H19   S    
O4    Zn1   S    
C42   C44   A    
C35   C50   S    
C65   H39   S    
C48   N1    A    
C71   H60   S    
C47   N2    A    
C72   H63   S    
O7    Zn2   S    
C76   H79   S    
O2    Zn2   S    
C59   H28   S    
C3    C78   A    
C10   H56   S    
C52   H10   S    
C17   C46   S    
C4    C6    A    
C31   C51   S    
C17   O6    A    
C43   C68   S    
C14   H23   S    
C71   H61   S    
C29   C55   S    
C57   H22   S    
C20   H12   S    
C59   H29   S    
C56   C77   A    
C66   H48   S    
C60   C61   S    
N2    N4    A    
C72   H64   S    
C53   H13   S    
C18   N5    A    
C75   H75   S    
C62   H32   S    
C1    O1    A    
C75   H74   S    
C69   H53   S    
C21   H1    S    
C53   H14   S    
C65   H41   S    
C49   H67   S    
N6    Zn1   S    
C67   C74   S    
C68   H52   S    
C9    C11   A    
C54   H17   S    
C37   C59   S    
O3    Zn2   S    
C20   C22   A    
C1    C23   S    
C22   C27   A    
C53   H11   S    
C70   H57   S    
C49   H80   S    
C60   H38   S    
C58   H26   S    
C41   C63   S    
C12   C34   S    
C2    C71   S    
C51   H5    S    
C61   H36   S    
C63   H44   S    
O8    Zn1   S    
C50   H4    S    
C39   C47   S    
O6    Zn2   S    
C68   H50   S    
C69   H55   S    
C33   C44   A    
C15   H34   S    
C52   H9    S    
C24   C28   A    
C6    C56   A    
C55   H18   S    
C3    C5    A    
C10   C13   A    
C50   H2    S    
C12   O4    A    
C11   C69   S    
C71   H62   S    
C76   H76   S    
C76   H77   S    
C36   C58   S    
C59   H30   S    
C64   H42   S    
C66   H47   S    
C73   H68   S    
C45   C75   S    
C58   H27   S    
C64   C65   S    
C36   C38   A    
C37   C39   A    
C6    C13   A    
C30   C32   A    
C20   N5    A    
C16   O7    A    
C19   C53   S    
C62   H31   S    
C5    C45   A    
C69   H54   S    
C55   H20   S    
C52   H8    S    
C9    H45   S    
C19   N6    A    
C15   C26   A    
C23   C78   A    
C61   C62   S    
C43   C46   A    
C54   H16   S    
C18   C54   S    
C61   H35   S    
C63   C64   S    
C47   N3    A    
C68   H51   S    
C70   H59   S    
C29   C31   A    
C21   C24   A    
C27   C28   A    
C42   C66   S    
O5    Zn1   S    
C74   H72   S    
C60   H37   S    
C58   H25   S    
C35   C46   A    
C33   C49   S    
C51   H6    S    
C50   H3    S    
C73   H66   S    
