data_mof_unit_60715.cif
_audit_creation_date              2012-12-10T19:19:37-0500
_audit_creation_method            fapswitch 2.2
_symmetry_space_group_name_H-M    P1
_symmetry_Int_Tables_number       1
_space_group_crystal_system       triclinic
_cell_length_a                    15.73587
_cell_length_b                    15.757877
_cell_length_c                    14.978327
_cell_angle_alpha                 89.516092
_cell_angle_beta                  89.471696
_cell_angle_gamma                 89.987768
_cell_volume                      3713.79405936

loop_
_atom_site_label
_atom_site_type_symbol
_atom_type_description
_atom_site_fract_x
_atom_site_fract_y
_atom_site_fract_z
_atom_type_partial_charge
C1    C     C_R   0.500038 0.337830 0.500400 0.903982
C2    C     C_3   0.557469 0.050752 0.421425 -0.408610
C3    C     C_3   0.557172 0.952582 0.419410 0.023509
C4    C     C_R   0.337436 0.500007 0.500404 0.900324
C5    C     C_1   0.500739 0.750953 0.498833 -0.142241
C6    C     C_3   0.501865 0.082468 0.500175 0.310944
C7    C     C_3   0.538374 0.949904 0.588340 -0.364020
C8    C     C_3   0.502680 0.917525 0.498739 0.283420
C9    C     C_3   0.410580 0.950907 0.488793 -0.452838
C10   C     C_3   0.410169 0.048817 0.489391 -0.397336
C11   C     C_1   0.501624 0.826181 0.498583 -0.071467
C12   C     C_3   0.082449 0.500394 0.500679 0.195317
C13   C     C_1   0.501225 0.173773 0.501004 -0.102817
C14   C     C_1   0.500623 0.249008 0.501095 -0.175661
C15   C     C_3   0.492998 0.409482 0.053264 -0.361821
C16   C     C_R   0.500005 0.662159 0.499599 0.910662
C17   C     C_3   0.585792 0.540674 0.050165 -0.010607
C18   C     C_3   0.586044 0.537611 0.945492 -0.013040
C19   C     C_3   0.502626 0.500980 0.089832 0.170368
C20   C     C_3   0.492023 0.409284 0.949044 -0.427900
C21   C     C_3   0.500817 0.500620 0.910093 0.172818
C22   C     C_3   0.426009 0.553677 0.948800 -0.361958
C23   C     C_3   0.971183 0.570552 0.540672 -0.151556
C24   C     C_3   0.427119 0.553941 0.053020 -0.427068
C25   C     C_1   0.499109 0.499243 0.809309 0.059838
C26   C     C_1   0.502073 0.501302 0.190670 0.064321
C27   C     C_R   0.662558 0.500059 0.499589 0.913933
C28   C     C_3   0.971149 0.431057 0.543283 -0.163147
C29   C     C_3   0.028774 0.430286 0.459078 -0.164591
C30   C     C_1   0.248522 0.500148 0.501218 -0.182562
C31   C     C_1   0.751460 0.500227 0.498725 -0.154335
C32   C     C_3   0.026610 0.501166 0.584886 -0.160057
C33   C     C_3   0.917517 0.500439 0.499075 0.194635
C34   C     C_3   0.028821 0.569783 0.456465 -0.160309
C35   C     C_3   0.973347 0.499671 0.414862 -0.148813
C36   C     C_1   0.173253 0.500282 0.501279 -0.075490
C37   C     C_1   0.826722 0.500361 0.498566 -0.054346
C38   C     C_3   0.538768 0.047829 0.588715 -0.393036
H1    H     H_    0.623361 0.075199 0.428316 0.202103
H2    H     H_    0.589079 0.607813 0.072074 0.168820
H3    H     H_    0.638575 0.495896 0.922156 0.165610
H4    H     H_    0.366054 0.527753 0.079260 0.180454
H5    H     H_    0.431670 0.620493 0.076783 0.178879
H6    H     H_    0.364593 0.526876 0.925936 0.169958
H7    H     H_    0.432901 0.380956 0.079256 0.169219
H8    H     H_    0.429171 0.619994 0.923129 0.197142
H9    H     H_    0.054591 0.626485 0.421038 0.144223
H10   H     H_    0.945436 0.627881 0.573959 0.150824
H11   H     H_    0.050558 0.501774 0.654365 0.142871
H12   H     H_    0.369083 0.071527 0.545195 0.178495
H13   H     H_    0.603901 0.925711 0.599103 0.207234
H14   H     H_    0.604973 0.071073 0.597338 0.185024
H15   H     H_    0.532609 0.076033 0.357121 0.161841
H16   H     H_    0.054505 0.372954 0.425786 0.141305
H17   H     H_    0.528299 0.931838 0.355609 0.137947
H18   H     H_    0.544874 0.368867 0.923789 0.178452
H19   H     H_    0.431724 0.380240 0.925934 0.179274
H20   H     H_    0.949378 0.499063 0.345390 0.155378
H21   H     H_    0.382552 0.073206 0.425994 0.174477
H22   H     H_    0.369801 0.926439 0.544444 0.186296
H23   H     H_    0.500422 0.070957 0.646421 0.174067
H24   H     H_    0.498530 0.925979 0.644977 0.175162
H25   H     H_    0.382730 0.928061 0.425292 0.174262
H26   H     H_    0.945379 0.374355 0.578711 0.142325
H27   H     H_    0.545659 0.368573 0.077487 0.198321
I1    I     I_    0.685588 0.903728 0.416240 -0.398932
I2    I     I_    0.699707 0.482889 0.102492 -0.384482
I3    I     I_    0.616054 0.660971 0.889508 -0.381943
N1    N     N_1   0.498320 0.498630 0.731150 -0.077469
N2    N     N_1   0.501700 0.501360 0.268850 -0.076212
O1    O     O_R   0.500080 0.377210 0.574260 -0.616335
O2    O     O_R   0.499910 0.377070 0.425800 -0.610118
O3    O     O_R   0.376870 0.500060 0.574220 -0.614629
O4    O     O_R   0.376690 0.499920 0.425760 -0.616104
O5    O     O_R   0.500090 0.622930 0.574200 -0.601701
O6    O     O_R   0.499920 0.622790 0.425740 -0.608693
O7    O     O_R   0.623310 0.500080 0.574240 -0.605435
O8    O     O_R   0.623130 0.499940 0.425780 -0.594948
Zn1   Zn    Zn3+2 0.500120 0.500090 0.599130 0.992277
Zn2   Zn    Zn3+2 0.499880 0.499910 0.400870 0.996317

loop_
_geom_bond_atom_site_label_1
_geom_bond_atom_site_label_2
_ccdc_geom_bond_type
C12   C29   S    
C18   C21   S    
C24   H4    S    
C20   H18   S    
C27   O8    A    
O1    Zn1   S    
C7    C8    S    
C15   C19   S    
C1    O1    A    
C35   H20   S    
C28   C29   S    
C5    C11   T    
O8    Zn2   S    
C38   H14   S    
C29   H16   S    
C18   I3    S    
C16   O5    A    
C34   C35   S    
C19   C26   S    
C5    C16   S    
C17   C19   S    
C3    H17   S    
C2    H1    S    
C22   H6    S    
C8    C9    S    
C23   C33   S    
C6    C38   S    
C12   C36   S    
C9    C10   S    
C4    O4    A    
C38   H23   S    
O4    Zn2   S    
C13   C14   T    
C12   C32   S    
C2    C6    S    
O7    Zn1   S    
C15   C20   S    
C17   I2    S    
C1    O2    A    
N2    Zn2   S    
C28   C32   S    
C3    C8    S    
C18   H3    S    
C27   C31   S    
C33   C37   S    
C31   C37   T    
C17   H2    S    
C7    H24   S    
C23   C34   S    
C17   C18   S    
O3    Zn1   S    
C4    O3    A    
C28   H26   S    
C22   H8    S    
C28   C33   S    
C26   N2    T    
C22   C24   S    
N1    Zn1   S    
C3    I1    S    
C25   N1    T    
C15   H7    S    
C12   C34   S    
C10   H12   S    
C21   C25   S    
C23   H10   S    
C16   O6    A    
C9    H25   S    
O6    Zn2   S    
C27   O7    A    
C2    H15   S    
C6    C10   S    
C34   H9    S    
C29   C35   S    
C30   C36   T    
C9    H22   S    
C23   C32   S    
C2    C3    S    
C7    H13   S    
O2    Zn2   S    
C6    C13   S    
O5    Zn1   S    
C8    C11   S    
C33   C35   S    
C7    C38   S    
C19   C24   S    
C32   H11   S    
C20   C21   S    
C24   H5    S    
C1    C14   S    
C20   H19   S    
C21   C22   S    
C10   H21   S    
C4    C30   S    
C15   H27   S    
