data_mof_unit_43932.cif
_audit_creation_date              2012-12-11T17:01:14-0500
_audit_creation_method            fapswitch 2.2
_symmetry_space_group_name_H-M    P1
_symmetry_Int_Tables_number       1
_space_group_crystal_system       triclinic
_cell_length_a                    19.344227
_cell_length_b                    7.142445
_cell_length_c                    17.603696
_cell_angle_alpha                 90.00658
_cell_angle_beta                  108.561683
_cell_angle_gamma                 89.991702
_cell_volume                      2305.69577247

loop_
_atom_site_label
_atom_site_type_symbol
_atom_type_description
_atom_site_fract_x
_atom_site_fract_y
_atom_site_fract_z
_atom_type_partial_charge
O1    O     O_R   0.413720 0.494330 0.415730 -0.524626
O2    O     O_R   0.586280 0.994330 0.584270 -0.524938
O3    O     O_R   0.560210 0.819300 0.430070 -0.546538
O4    O     O_R   0.439790 0.319300 0.569930 -0.546404
C1    C     C_R   0.581061 0.654915 0.414502 0.799856
C2    C     C_R   0.418951 0.154915 0.585522 0.799807
O5    O     O_R   0.412670 0.823730 0.406310 -0.517127
O6    O     O_R   0.587330 0.323730 0.593690 -0.517386
O7    O     O_R   0.437690 0.998790 0.560340 -0.524560
O8    O     O_R   0.562310 0.498790 0.439660 -0.525252
C3    C     C_R   0.384954 0.655521 0.384140 0.773308
C4    C     C_R   0.615073 0.155534 0.615824 0.772392
O9    O     O_3   0.508380 0.662350 0.550560 -0.381464
O10   O     O_3   0.491620 0.162350 0.449440 -0.381501
V1    V     V_3+5 0.498450 0.935370 0.490620 1.666353
V2    V     V_3+5 0.501550 0.435370 0.509380 1.666096
C5    C     C_R   0.696936 0.999634 0.739456 -0.120158
C6    C     C_R   0.303270 0.500041 0.260247 -0.119652
C7    C     C_R   0.684136 0.147098 0.684096 -0.163926
C8    C     C_R   0.315926 0.647076 0.315827 -0.164251
C9    C     C_R   0.742367 0.271520 0.689616 0.637128
C10   C     C_R   0.257620 0.771201 0.310419 0.638467
C11   C     C_R   0.810051 0.251299 0.751145 -0.243598
C12   C     C_R   0.189939 0.750941 0.248902 -0.244634
C13   C     C_R   0.818075 0.120396 0.813328 -0.190651
C14   C     C_R   0.181977 0.620375 0.186602 -0.191044
C15   C     C_R   0.763457 0.984419 0.802459 0.047650
C16   C     C_R   0.236745 0.484836 0.197249 0.048009
C17   C     C_3   0.770845 0.781826 0.782396 -0.303814
C18   C     C_3   0.229609 0.281901 0.216958 -0.303121
C19   C     C_3   0.695684 0.796107 0.719334 0.467756
C20   C     C_3   0.304799 0.296224 0.279988 0.466836
C21   C     C_R   0.301281 0.064738 0.604285 0.692271
C22   C     C_R   0.699135 0.567426 0.396155 0.691833
C23   C     C_R   0.370662 0.144895 0.636012 -0.293603
C24   C     C_R   0.629332 0.644939 0.364001 -0.293879
C25   C     C_R   0.393712 0.212802 0.715269 -0.148948
C26   C     C_R   0.605905 0.710625 0.284401 -0.149529
C27   C     C_R   0.344001 0.219650 0.759757 -0.113040
C28   C     C_R   0.655484 0.717060 0.239716 -0.113477
C29   C     C_R   0.273932 0.136816 0.727263 -0.105327
C30   C     C_R   0.726017 0.636940 0.272688 -0.105922
C31   C     C_R   0.253337 0.055457 0.650009 -0.099602
C32   C     C_R   0.747127 0.558405 0.350484 -0.100241
C33   C     C_R   0.362027 0.306600 0.835740 0.552981
C34   C     C_R   0.636909 0.801040 0.163096 0.553200
C35   C     C_R   0.312680 0.309474 0.878649 0.660472
C36   C     C_R   0.686196 0.803852 0.120107 0.660770
C37   C     C_R   0.244298 0.222090 0.848398 -0.236963
C38   C     C_R   0.755104 0.719399 0.150935 -0.237194
C39   C     C_R   0.224796 0.133127 0.772539 -0.129939
C40   C     C_R   0.775154 0.633290 0.227401 -0.130437
C41   C     C_R   0.156448 0.040348 0.742202 -0.061852
C42   C     C_R   0.844078 0.543493 0.258353 -0.062166
C43   C     C_R   0.137271 0.957381 0.664983 -0.214431
C44   C     C_R   0.863837 0.463728 0.336194 -0.214875
C45   C     C_R   0.184996 0.967368 0.619594 0.628579
C46   C     C_R   0.816043 0.473473 0.381507 0.628681
C47   C     C_R   0.195322 0.221242 0.892829 0.618115
C48   C     C_R   0.804081 0.718683 0.106494 0.617204
C49   C     C_R   0.129266 0.123729 0.864939 -0.298398
C50   C     C_R   0.870694 0.623835 0.135000 -0.298649
C51   C     C_R   0.109917 0.033370 0.790349 0.528194
C52   C     C_R   0.890600 0.536250 0.210190 0.527420
O11   O     O_R   0.937800 0.775460 0.060470 -0.527863
O12   O     O_R   0.062200 0.275460 0.939530 -0.527173
O13   O     O_R   0.087350 0.441340 0.093710 -0.542254
O14   O     O_R   0.912650 0.941340 0.906290 -0.542332
C53   C     C_R   0.114086 0.609871 0.116885 0.747766
C54   C     C_R   0.885935 0.109883 0.883086 0.746423
O15   O     O_R   0.939820 0.446010 0.069950 -0.521692
O16   O     O_R   0.060180 0.946010 0.930050 -0.520870
O17   O     O_R   0.913690 0.271230 0.915700 -0.547319
O18   O     O_R   0.086310 0.771230 0.084300 -0.547520
C55   C     C_R   0.919372 0.614586 0.085250 0.845454
C56   C     C_R   0.080612 0.114559 0.914726 0.844751
O19   O     O_3   0.991670 0.603050 0.949510 -0.384594
O20   O     O_3   0.008330 0.103050 0.050490 -0.385290
V3    V     V_3+5 0.001550 0.329940 0.009370 1.593512
V4    V     V_3+5 0.998450 0.829940 0.990630 1.594103
F1    F     F_    0.736333 0.397473 0.630161 -0.566675
F2    F     F_    0.263591 0.896892 0.369968 -0.566215
F3    F     F_    0.332979 0.397238 0.950876 -0.538827
F4    F     F_    0.665317 0.888591 0.047224 -0.538538
F5    F     F_    0.212369 0.310573 0.964635 -0.611609
F6    F     F_    0.786547 0.805622 0.034142 -0.611807
F7    F     F_    0.044757 0.942985 0.765114 -0.674090
F8    F     F_    0.956236 0.448177 0.235925 -0.674503
C57   C     C_1   0.068599 0.861642 0.629396 0.589672
N1    N     N_1   0.013756 0.784917 0.600665 -0.211903
C58   C     C_1   0.933263 0.372042 0.372576 0.591284
N2    N     N_1   0.988723 0.298621 0.401946 -0.212316
F9    F     F_    0.164396 0.887735 0.545510 -0.589104
F10   F     F_    0.837206 0.396935 0.456185 -0.588496
C59   C     C_1   0.875135 0.329092 0.740312 0.461043
N3    N     N_1   0.928372 0.384945 0.731855 -0.251210
C60   C     C_1   0.124821 0.828214 0.259877 0.463193
N4    N     N_1   0.071578 0.883682 0.268466 -0.251178
C61   C     C_1   0.777674 0.653448 0.849920 0.329282
N5    N     N_1   0.782881 0.551661 0.902585 -0.258625
C62   C     C_1   0.222845 0.154286 0.149192 0.329110
N6    N     N_1   0.217681 0.053094 0.096334 -0.259327
C63   C     C_1   0.830257 0.759519 0.747191 0.463859
N7    N     N_1   0.876528 0.751095 0.718860 -0.196078
C64   C     C_1   0.170258 0.258542 0.252171 0.462963
N8    N     N_1   0.124008 0.249354 0.280504 -0.197925
C65   C     C_1   0.634666 0.702627 0.736682 0.338915
N9    N     N_1   0.586208 0.631476 0.750174 -0.289983
C66   C     C_1   0.365872 0.203576 0.262361 0.337760
N10   N     N_1   0.414343 0.133002 0.248642 -0.290025
F11   F     F_    0.695653 0.762200 0.641688 -0.602380
F12   F     F_    0.304928 0.261195 0.357582 -0.603189
F13   F     F_    0.281019 0.995999 0.528391 -0.543911
F14   F     F_    0.719786 0.501186 0.472459 -0.543049
C67   C     C_1   0.470515 0.252132 0.752835 0.480607
N11   N     N_1   0.532100 0.279509 0.783218 -0.252225
C68   C     C_1   0.529007 0.749272 0.247013 0.480325
N12   N     N_1   0.467359 0.776293 0.216854 -0.253397
F15   F     F_    0.426608 0.396131 0.868512 -0.588653
F16   F     F_    0.571767 0.887517 0.129651 -0.588132

loop_
_geom_bond_atom_site_label_1
_geom_bond_atom_site_label_2
_ccdc_geom_bond_type
O14   V4    S    
C26   C28   A    
C62   N6    T    
C15   C17   S    
C41   C43   A    
C59   N3    T    
O1    C3    A    
O16   C56   A    
O2    C4    A    
C2    O7    A    
O15   V3    S    
C60   N4    T    
C27   C29   A    
C28   C34   A    
O12   V3    S    
C10   F2    S    
C23   C25   A    
C12   C14   A    
O20   V4    S    
C67   N11   T    
C1    C24   S    
C2    C23   S    
C17   C63   S    
C48   C50   A    
C33   C35   A    
C49   C51   A    
C50   C52   A    
C5    C7    A    
C26   C68   S    
C44   C58   S    
C32   C46   A    
C37   C39   A    
C38   C40   A    
C65   N9    T    
C35   F3    S    
C44   C46   A    
C18   C20   S    
C22   C24   A    
C27   C33   A    
C21   F13   S    
C33   F15   S    
C36   C38   A    
O6    V2    S    
O11   V4    S    
C45   F9    S    
C17   C19   S    
C29   C31   A    
C30   C32   A    
C40   C42   A    
C34   C36   A    
O19   V3    S    
C49   C56   S    
C42   C44   A    
C3    C8    S    
C47   C49   A    
C20   C66   S    
C17   C61   S    
C12   C60   S    
C5    C15   A    
C6    C16   A    
C35   C37   A    
C58   N2    T    
C48   F6    S    
O20   V3    S    
O5    V1    S    
C36   F4    S    
C39   C41   A    
C21   C31   A    
O4    V2    S    
O5    C3    A    
C47   F5    S    
C61   N5    T    
O6    C4    A    
O12   C56   A    
C54   O17   A    
O17   V3    S    
C34   F16   S    
C53   O18   A    
O1    V2    S    
O2    V1    S    
O4    C2    A    
C9    F1    S    
C9    C11   A    
C18   C64   S    
C13   C15   A    
C5    C19   S    
C10   C12   A    
C50   C55   S    
C6    C20   S    
O3    V1    S    
O19   V4    S    
C22   C32   A    
C20   F12   S    
C51   F7    S    
C19   C65   S    
C8    C10   A    
C28   C30   A    
O3    C1    A    
O11   C55   A    
C4    C7    S    
C25   C67   S    
C29   C39   A    
C22   F14   S    
C64   N8    T    
C14   C16   A    
C37   C47   A    
C38   C48   A    
C43   C45   A    
C46   F10   S    
C16   C18   S    
C25   C27   A    
O8    V2    S    
C68   N12   T    
O15   C55   A    
C41   C51   A    
C42   C52   A    
C18   C62   S    
C24   C26   A    
C21   C23   A    
C11   C59   S    
C6    C8    A    
C11   C13   A    
O7    V1    S    
C43   C57   S    
C31   C45   A    
C1    O8    A    
O16   V4    S    
O9    V2    S    
C63   N7    T    
C14   C53   S    
C19   F11   S    
O10   V1    S    
O18   V4    S    
C13   C54   S    
O13   C53   A    
C57   N1    T    
C66   N10   T    
O14   C54   A    
C52   F8    S    
O13   V3    S    
C30   C40   A    
C7    C9    A    
