data_mof_unit_68265.cif
_audit_creation_date              2012-12-11T14:03:33-0500
_audit_creation_method            fapswitch 2.2
_symmetry_space_group_name_H-M    P1
_symmetry_Int_Tables_number       1
_space_group_crystal_system       triclinic
_cell_length_a                    7.044349
_cell_length_b                    11.536287
_cell_length_c                    18.773273
_cell_angle_alpha                 90.000459
_cell_angle_beta                  92.52049
_cell_angle_gamma                 90.000762
_cell_volume                      1524.14594121

loop_
_atom_site_label
_atom_site_type_symbol
_atom_type_description
_atom_site_fract_x
_atom_site_fract_y
_atom_site_fract_z
_atom_type_partial_charge
O1    O     O_R   0.330540 0.606360 0.598870 -0.526646
O2    O     O_R   0.669460 0.106360 0.401130 -0.526644
O3    O     O_R   0.026770 0.620470 0.750430 -0.532697
O4    O     O_R   0.973230 0.120470 0.249570 -0.532715
O5    O     O_R   0.856460 0.393640 0.750930 -0.547202
O6    O     O_R   0.143540 0.893640 0.249070 -0.547194
C1    C     C_R   0.198107 0.646544 0.774567 0.741255
C2    C     C_R   0.801896 0.146551 0.225437 0.741259
O7    O     O_R   0.000920 0.620350 0.599420 -0.518151
O8    O     O_R   0.999080 0.120350 0.400580 -0.518156
O9    O     O_R   0.830430 0.393520 0.598850 -0.535277
O10   O     O_R   0.169570 0.893520 0.401150 -0.535277
C3    C     C_R   0.167556 0.647085 0.574670 0.815776
C4    C     C_R   0.832445 0.147085 0.425331 0.815769
O11   O     O_R   0.356570 0.606480 0.750960 -0.535622
O12   O     O_R   0.643430 0.106480 0.249040 -0.535602
O13   O     O_3   0.176990 0.425580 0.674890 -0.380488
O14   O     O_3   0.823010 0.925580 0.325110 -0.380492
V1    V     V_3+5 0.902170 0.513810 0.674910 1.556599
V2    V     V_3+5 0.097830 0.013810 0.325090 1.556591
O15   O     O_R   0.500800 0.379530 0.599380 -0.521829
O16   O     O_R   0.499200 0.879530 0.400620 -0.521829
C5    C     C_R   0.668352 0.351053 0.575698 0.785495
C6    C     C_R   0.331647 0.851053 0.424301 0.785488
O17   O     O_R   0.526650 0.379650 0.750390 -0.549511
O18   O     O_R   0.473350 0.879650 0.249610 -0.549510
C7    C     C_R   0.698150 0.354590 0.774886 0.742694
C8    C     C_R   0.301846 0.854581 0.225117 0.742686
V3    V     V_3+5 0.402160 0.486190 0.674900 1.542194
V4    V     V_3+5 0.597840 0.986190 0.325100 1.542200
O19   O     O_3   0.677210 0.574420 0.674910 -0.360138
O20   O     O_3   0.322790 0.074420 0.325090 -0.360135
C9    C     C_R   0.682994 0.079919 0.877069 0.138789
C10   C     C_R   0.316936 0.579896 0.122935 0.138757
H1    H     H_    0.672546 0.134638 0.767646 0.137268
H2    H     H_    0.327372 0.634619 0.232359 0.137282
C11   C     C_R   0.713575 0.277508 0.836590 -0.094365
C12   C     C_R   0.286408 0.777492 0.163414 -0.094347
C13   C     C_R   0.805309 0.350137 0.185129 0.089336
C14   C     C_R   0.194638 0.850124 0.814882 0.089364
C15   C     C_R   0.833408 0.430828 0.129644 0.119344
C16   C     C_R   0.166514 0.930802 0.870371 0.119328
C17   C     C_R   0.841259 0.388286 0.059544 -0.255819
C18   C     C_R   0.158657 0.888249 0.940467 -0.255856
C19   C     C_R   0.784621 0.275586 0.039014 0.066898
C20   C     C_R   0.215365 0.775565 0.960993 0.066928
C21   C     C_R   0.769251 0.195561 0.095058 0.007997
C22   C     C_R   0.230786 0.695550 0.904947 0.008024
C23   C     C_R   0.748133 0.239305 0.965652 0.016700
C24   C     C_R   0.251848 0.739282 0.034353 0.016723
C25   C     C_R   0.715848 0.116355 0.950661 -0.001829
C26   C     C_R   0.284114 0.616333 0.049343 -0.001805
C27   C     C_R   0.722766 0.036553 0.009534 0.131263
C28   C     C_R   0.277226 0.536535 0.990468 0.131270
C29   C     C_R   0.740870 0.079171 0.079090 -0.097371
C30   C     C_R   0.259202 0.579162 0.920913 -0.097410
C31   C     C_R   0.732908 0.320115 0.906539 0.032783
C32   C     C_R   0.267083 0.820093 0.093465 0.032750
C33   C     C_R   0.693883 0.161400 0.822959 -0.234252
C34   C     C_R   0.306055 0.661381 0.177045 -0.234273
C35   C     C_R   0.788151 0.232021 0.167437 -0.128364
C36   C     C_R   0.211861 0.732012 0.832569 -0.128391
H3    H     H_    0.904369 0.444407 0.022604 0.186855
H4    H     H_    0.095513 0.944349 0.977410 0.186847
H5    H     H_    0.728070 0.019345 0.122666 0.144990
H6    H     H_    0.272056 0.519339 0.877336 0.145004
C37   C     C_2   0.826350 0.241076 0.479136 -0.025220
C38   C     C_2   0.173650 0.741074 0.520864 -0.025220
C39   C     C_2   0.678062 0.254835 0.523596 -0.059136
C40   C     C_2   0.321936 0.754835 0.476402 -0.059135
I1    I     I_    0.461518 0.126600 0.535629 -0.292661
I2    I     I_    0.538471 0.626600 0.464367 -0.292656
C41   C     C_3   0.704836 0.905545 0.001446 -0.349876
C42   C     C_3   0.781743 0.830461 0.062896 -0.783993
H7    H     H_    0.912840 0.867292 0.087633 0.249489
H8    H     H_    0.674938 0.820881 0.104226 0.242441
H9    H     H_    0.814366 0.743971 0.041145 0.237229
H10   H     H_    0.553378 0.882874 0.994223 0.218975
H11   H     H_    0.784907 0.877814 0.955721 0.212694
C43   C     C_3   0.295069 0.405524 0.998552 -0.349835
C44   C     C_3   0.218133 0.330465 0.937091 -0.783932
H12   H     H_    0.087149 0.367372 0.912312 0.249483
H13   H     H_    0.325008 0.320800 0.895793 0.242414
H14   H     H_    0.185302 0.244005 0.958838 0.237207
H15   H     H_    0.446508 0.382813 0.005784 0.218937
H16   H     H_    0.214960 0.377813 0.044272 0.212690
C45   C     C_3   0.603484 0.964742 0.848584 -0.397526
C46   C     C_3   0.738119 0.887568 0.808431 -0.648927
H17   H     H_    0.824805 0.939203 0.772466 0.247591
H18   H     H_    0.828037 0.834828 0.845396 0.227371
H19   H     H_    0.653803 0.825034 0.774975 0.242924
H20   H     H_    0.527039 0.913328 0.886269 0.190736
H21   H     H_    0.491247 0.986937 0.808392 0.223526
C47   C     C_3   0.396422 0.464714 0.151419 -0.397485
C48   C     C_3   0.261756 0.387549 0.191565 -0.649025
H22   H     H_    0.174940 0.439200 0.227467 0.247607
H23   H     H_    0.171972 0.334735 0.154600 0.227370
H24   H     H_    0.346031 0.325092 0.225082 0.242950
H25   H     H_    0.472866 0.413298 0.113735 0.190744
H26   H     H_    0.508653 0.486907 0.191616 0.223529
I3    I     I_    0.719471 0.509462 0.909126 -0.538815
I4    I     I_    0.280554 0.009440 0.090868 -0.538803
I5    I     I_    0.782837 0.393508 0.295955 -0.439532
I6    I     I_    0.217037 0.893506 0.704056 -0.439531
C49   C     C_3   0.836088 0.563032 0.135314 -0.360495
C50   C     C_3   0.853972 0.624781 0.207337 -0.657990
H27   H     H_    0.720211 0.619956 0.236016 0.237084
H28   H     H_    0.975691 0.591963 0.240549 0.244501
H29   H     H_    0.880243 0.718330 0.198281 0.213154
H30   H     H_    0.952964 0.595158 0.103873 0.198452
H31   H     H_    0.704705 0.595157 0.107364 0.194936
C51   C     C_3   0.163822 0.063007 0.864710 -0.360441
C52   C     C_3   0.145933 0.124765 0.792691 -0.658011
H32   H     H_    0.279690 0.119950 0.764008 0.237073
H33   H     H_    0.024214 0.091945 0.759479 0.244519
H34   H     H_    0.119661 0.218312 0.801752 0.213152
H35   H     H_    0.046941 0.095116 0.896151 0.198437
H36   H     H_    0.295193 0.095141 0.892667 0.194939
I7    I     I_    0.060232 0.360428 0.473942 -0.263611
I8    I     I_    0.939763 0.860420 0.526055 -0.263606

loop_
_geom_bond_atom_site_label_1
_geom_bond_atom_site_label_2
_ccdc_geom_bond_type
V4    O20   S    
C49   H30   S    
O13   V3    S    
C41   C42   S    
C5    C39   S    
C48   H22   S    
C45   C46   S    
V1    O19   S    
C44   H12   S    
C48   H24   S    
C6    C40   S    
C13   C15   A    
C18   H4    S    
O9    V1    S    
C15   C49   S    
O3    C1    A    
C51   H35   S    
C50   H27   S    
O12   V4    S    
C14   C36   A    
H1    C33   S    
C19   C21   A    
C39   I1    S    
O7    C3    A    
C43   H16   S    
C44   H13   S    
O5    C7    A    
O7    V1    S    
O6    C8    A    
C18   C20   A    
C23   C25   A    
C42   H9    S    
C24   C26   A    
C4    C37   S    
O3    V1    S    
O14   V4    S    
C8    C12   S    
O4    C2    A    
C2    C35   S    
C52   H34   S    
C14   C16   A    
C49   H31   S    
C2    O12   A    
C12   C32   A    
C45   H20   S    
C10   C34   A    
C15   C17   A    
C16   C18   A    
C51   C52   S    
C29   H5    S    
C26   C28   A    
O11   V3    S    
C28   C43   S    
C27   C29   A    
O17   V3    S    
C13   C35   A    
C28   C30   A    
C42   H7    S    
C17   H3    S    
C24   C32   A    
O8    C4    A    
O8    V2    S    
C16   C51   S    
C1    O11   A    
O15   V3    S    
C9    C25   A    
C37   C39   D    
C1    C36   S    
C43   H15   S    
C14   I6    S    
C22   C36   A    
C46   H19   S    
C47   H26   S    
C41   H10   S    
O10   V2    S    
O1    V3    S    
C19   C23   A    
C41   H11   S    
C17   C19   A    
C11   C33   A    
C42   H8    S    
C12   C34   A    
C38   C40   D    
C46   H18   S    
O18   V4    S    
O15   C5    A    
O16   C6    A    
O1    C3    A    
C44   H14   S    
C31   I3    S    
C21   C29   A    
C52   H32   S    
V2    O20   S    
C22   C30   A    
O10   C6    A    
O16   V4    S    
C10   C26   A    
C27   C41   S    
C10   C47   S    
C43   C44   S    
H2    C34   S    
C21   C35   A    
C23   C31   A    
C48   H23   S    
C13   I5    S    
O5    V1    S    
O17   C7    A    
O6    V2    S    
C49   C50   S    
C20   C24   A    
O18   C8    A    
O2    V4    S    
C9    C45   S    
V3    O19   S    
C38   I8    S    
C51   H36   S    
C50   H28   S    
C47   H25   S    
C7    C11   S    
C30   H6    S    
C32   I4    S    
C45   H21   S    
O9    C5    A    
O13   V1    S    
O14   V2    S    
C47   C48   S    
O2    C4    A    
O4    V2    S    
C20   C22   A    
C46   H17   S    
C9    C33   A    
C40   I2    S    
C25   C27   A    
C37   I7    S    
C3    C38   S    
C11   C31   A    
C52   H33   S    
C50   H29   S    
