data_mof_unit_62994.cif
_audit_creation_date              2012-12-10T17:49:33-0500
_audit_creation_method            fapswitch 2.2
_symmetry_space_group_name_H-M    P1
_symmetry_Int_Tables_number       1
_space_group_crystal_system       triclinic
_cell_length_a                    10.516047
_cell_length_b                    10.409416
_cell_length_c                    9.963535
_cell_angle_alpha                 90.626014
_cell_angle_beta                  93.283868
_cell_angle_gamma                 92.192909
_cell_volume                      1087.98501913

loop_
_atom_site_label
_atom_site_type_symbol
_atom_type_description
_atom_site_fract_x
_atom_site_fract_y
_atom_site_fract_z
_atom_type_partial_charge
C1    C     C_R   0.529982 0.265987 0.500548 0.929198
C2    C     C_R   0.620221 0.076443 0.618575 0.053114
C3    C     C_R   0.582610 0.138778 0.498708 -0.277893
C4    C     C_R   0.257813 0.507750 0.497828 0.959645
C5    C     C_R   0.583685 0.069668 0.376539 0.508767
C6    C     C_R   0.556813 0.939275 0.379641 -0.212764
C7    C     C_R   0.557410 0.876042 0.502736 -0.218550
C8    C     C_R   0.346612 0.315050 0.121697 0.330358
C9    C     C_R   0.332843 0.193228 0.059643 0.460857
C10   C     C_R   0.333862 0.188899 0.919706 -0.264696
C11   C     C_R   0.370033 0.299612 0.851681 -0.254262
C12   C     C_3   0.947651 0.434354 0.406570 -0.002590
C13   C     C_R   0.435038 0.402692 0.922410 0.167929
C14   C     C_R   0.432181 0.404420 0.065858 0.044835
C15   C     C_R   0.565891 0.590850 0.076874 -0.011695
C16   C     C_R   0.515969 0.741077 0.501468 0.905738
C17   C     C_R   0.564937 0.591221 0.934369 -0.046461
C18   C     C_R   0.742340 0.502593 0.503586 0.852432
C19   C     C_3   0.050262 0.588520 0.601548 0.423245
C20   C     C_3   0.967849 0.466851 0.626008 -0.285799
C21   C     C_3   0.877203 0.508154 0.510391 -0.081441
C22   C     C_3   0.956444 0.631405 0.488493 -0.296086
C23   C     C_3   0.041069 0.392854 0.521622 -0.180270
C24   C     C_3   0.029707 0.557618 0.384094 -0.098981
C25   C     C_3   0.122173 0.515309 0.497696 -0.093849
C26   C     C_R   0.675008 0.144333 0.732471 -0.152328
C27   C     C_R   0.725928 0.078193 0.842557 -0.020633
C28   C     C_R   0.726077 0.944475 0.839474 -0.053555
C29   C     C_R   0.672890 0.876433 0.727153 -0.151666
C30   C     C_R   0.613723 0.940997 0.618404 0.123374
H1    H     H_    0.938959 0.430963 0.724719 0.177170
H2    H     H_    0.078547 0.295139 0.534266 0.193664
H3    H     H_    0.687548 0.247910 0.733981 0.166916
H4    H     H_    0.770816 0.131138 0.927699 0.184115
H5    H     H_    0.619940 0.665343 0.134256 0.137113
H6    H     H_    0.118318 0.379961 0.933296 0.365281
H7    H     H_    0.256908 0.001875 0.350618 0.383871
H8    H     H_    0.940388 0.704175 0.828865 0.333623
H9    H     H_    0.917666 0.728722 0.477429 0.188580
H10   H     H_    0.851239 0.109860 0.167989 0.403442
H11   H     H_    0.771551 0.893627 0.922204 0.168611
H12   H     H_    0.688194 0.774920 0.720961 0.139426
H13   H     H_    0.542865 0.886651 0.285204 0.223435
H14   H     H_    0.296042 0.104783 0.863751 0.232516
H15   H     H_    0.341388 0.303244 0.747372 0.236628
H16   H     H_    0.618850 0.665503 0.886947 0.115456
H17   H     H_    0.050675 0.601562 0.287063 0.232882
H18   H     H_    0.902532 0.369718 0.326771 0.224839
N1    N     N_R   0.498800 0.498800 0.142780 -0.089492
N2    N     N_R   0.498760 0.498720 0.857170 -0.097748
O1    O     O_R   0.500000 0.316780 0.614690 -0.659008
O2    O     O_2   0.201548 0.519649 0.144119 -0.296608
O3    O     O_3   0.093623 0.326780 0.010107 -0.537092
O4    O     O_2   0.126607 0.046046 0.104460 -0.217219
O5    O     O_2   0.330647 0.940570 0.103913 -0.260365
O6    O     O_3   0.286659 0.083837 0.311187 -0.563331
O7    O     O_2   0.190113 0.621151 0.836055 -0.253813
O8    O     O_2   0.206640 0.791735 0.669547 -0.262926
O9    O     O_3   0.000610 0.772964 0.800874 -0.509845
O10   O     O_2   0.583399 0.083532 0.107897 -0.329291
O11   O     O_2   0.680019 0.270541 0.232385 -0.335450
O12   O     O_R   0.499990 0.316750 0.385360 -0.558703
O13   O     O_3   0.802660 0.060023 0.233473 -0.544019
O14   O     O_R   0.313960 0.499980 0.614650 -0.604901
O15   O     O_R   0.313940 0.499960 0.385310 -0.539409
O16   O     O_R   0.500010 0.683250 0.614640 -0.592682
O17   O     O_R   0.500000 0.683220 0.385310 -0.623879
O18   O     O_R   0.686060 0.500040 0.614690 -0.665070
O19   O     O_R   0.686040 0.500020 0.385350 -0.599630
O20   O     O_2   0.144189 0.321403 0.265775 -0.272599
S1    S     S_3+6 0.194461 0.375228 0.139777 0.054759
S2    S     S_3+6 0.266556 0.060630 0.143918 0.104011
S3    S     S_3+6 0.117616 0.695260 0.730293 0.069309
S4    S     S_3+6 0.659650 0.127139 0.233113 -0.012925
Zn1   Zn    Zn3+2 0.500010 0.500020 0.653130 0.973294
Zn2   Zn    Zn3+2 0.499990 0.499980 0.346870 1.061088

loop_
_geom_bond_atom_site_label_1
_geom_bond_atom_site_label_2
_ccdc_geom_bond_type
C29   H12   S    
C18   C21   S    
C19   C20   S    
C9    S2    S    
C12   H18   S    
C1    O12   A    
C4    C25   S    
O18   Zn1   S    
C12   C23   S    
C26   C27   A    
O15   Zn2   S    
C28   C29   A    
O1    Zn1   S    
H10   O13   S    
C5    C6    A    
C14   N1    A    
O16   Zn1   S    
C18   O18   A    
C28   H11   S    
O19   Zn2   S    
O7    S3    D    
C5    S4    S    
H6    O3    S    
H7    O6    S    
C8    C9    A    
O6    S2    S    
O20   S1    D    
C9    C10   A    
O9    S3    S    
O5    S2    D    
C18   O19   A    
C15   N1    A    
C7    C30   A    
C13   C14   A    
O12   Zn2   S    
C15   H5    S    
C27   H4    S    
C10   H14   S    
C19   S3    S    
C19   C22   S    
C17   H16   S    
C12   C21   S    
H8    O9    S    
C1    C3    S    
C29   C30   A    
C26   H3    S    
C20   C23   S    
N1    Zn2   S    
C2    C26   A    
C16   O17   A    
C24   C25   S    
C1    O1    A    
C7    C16   S    
C6    H13   S    
C22   C24   S    
C11   H15   S    
C16   O16   A    
O3    S1    S    
C15   C17   A    
C12   C24   S    
C8    S1    S    
C8    C14   A    
C24   H17   S    
C3    C5    A    
C17   N2    A    
C6    C7    A    
O13   S4    S    
O11   S4    D    
C4    O14   A    
C2    C30   A    
C23   H2    S    
C2    C3    A    
O2    S1    D    
N2    Zn1   S    
C11   C13   A    
C4    O15   A    
C22   H9    S    
O10   S4    D    
O14   Zn1   S    
C23   C25   S    
C19   C25   S    
C10   C11   A    
C13   N2    A    
O4    S2    D    
C20   C21   S    
C27   C28   A    
O17   Zn2   S    
C21   C22   S    
O8    S3    D    
C20   H1    S    
