data_mof_unit_30950.cif
_audit_creation_date              2013-03-05T15:49:42-0500
_audit_creation_method            fapswitch 2.2
_symmetry_space_group_name_H-M    P1
_symmetry_Int_Tables_number       1
_space_group_crystal_system       triclinic
_cell_length_a                    13.517869
_cell_length_b                    13.495836
_cell_length_c                    27.538538
_cell_angle_alpha                 90.536592
_cell_angle_beta                  90.107116
_cell_angle_gamma                 59.810991
_cell_volume                      4342.38018299

loop_
_atom_site_label
_atom_site_type_symbol
_atom_site_description
_atom_site_fract_x
_atom_site_fract_y
_atom_site_fract_z
_atom_type_partial_charge
O1    O     O_R   0.301780 0.195490 0.553940 -0.473309
O2    O     O_R   0.522450 0.158840 0.550250 -0.491420
C1    C     C_R   0.620363 0.101293 0.569859 0.545363
O3    O     O_R   0.694460 0.003360 0.553820 -0.481957
O4    O     O_R   0.657750 0.819520 0.549120 -0.478435
C2    C     C_R   0.600001 0.778915 0.568239 0.555942
O5    O     O_R   0.501990 0.803120 0.552700 -0.500974
O6    O     O_R   0.318230 0.023430 0.549370 -0.504689
C3    C     C_R   0.277600 0.121883 0.569256 0.544627
O7    O     O_R   0.302950 0.194150 0.446980 -0.498086
O8    O     O_R   0.523540 0.157600 0.451100 -0.450702
C4    C     C_R   0.621956 0.099459 0.431153 0.598536
O9    O     O_R   0.695630 0.002030 0.446860 -0.440640
O10   O     O_R   0.658840 0.818280 0.449970 -0.456662
C5    C     C_R   0.601442 0.777412 0.430426 0.629718
O11   O     O_R   0.503160 0.801780 0.445740 -0.442954
O12   O     O_R   0.319320 0.022190 0.450230 -0.467605
C6    C     C_R   0.277196 0.121389 0.431334 0.567445
Cr1   Cr    Cr6+3 0.417550 0.169090 0.500530 1.141018
Cr2   Cr    Cr6+3 0.669180 0.913420 0.499920 1.165115
Cr3   Cr    Cr6+3 0.413260 0.917540 0.499520 1.112155
O13   O     O_3   0.499990 0.000010 0.499990 -0.308518
C7    C     C_3   0.768926 0.649043 0.739670 0.226400
C8    C     C_3   0.700753 0.742982 0.777970 -0.127267
H1    H     H_    0.728551 0.799829 0.794907 0.148050
H2    H     H_    0.523721 0.870274 0.739396 0.115349
C9    C     C_1   0.696801 0.608483 0.899046 0.051277
C10   C     C_1   0.631264 0.731916 0.615668 0.047278
C11   C     C_3   0.749732 0.560991 0.767020 -0.121849
C12   C     C_3   0.678572 0.656118 0.804969 -0.011985
C13   C     C_3   0.638998 0.598803 0.736713 -0.108830
C14   C     C_3   0.661121 0.685562 0.709761 0.003229
C15   C     C_3   0.570622 0.692860 0.774843 0.221339
C16   C     C_3   0.590087 0.780635 0.747582 -0.139011
C17   C     C_1   0.687799 0.635067 0.857091 0.023442
C18   C     C_1   0.648768 0.705597 0.657633 0.020961
H3    H     H_    0.611733 0.541560 0.719712 0.149570
H4    H     H_    0.815972 0.471327 0.775202 0.171499
C19   C     C_3   0.070223 0.190107 0.737228 0.441340
C20   C     C_3   0.131735 0.088772 0.772065 0.495979
H5    H     H_    0.310193 0.961826 0.735045 0.178533
C21   C     C_1   0.100633 0.197820 0.901074 0.053021
C22   C     C_1   0.230714 0.137784 0.617065 0.064399
C23   C     C_3   0.090565 0.267779 0.772664 -0.100416
C24   C     C_3   0.153878 0.164571 0.807124 -0.040035
C25   C     C_3   0.205798 0.228793 0.747184 0.170869
C26   C     C_3   0.184265 0.153701 0.711622 -0.034327
C27   C     C_3   0.269674 0.127791 0.782207 -0.192693
C28   C     C_3   0.247308 0.050837 0.746351 -0.173993
C29   C     C_1   0.130267 0.177461 0.859267 0.045987
C30   C     C_1   0.204443 0.146547 0.659241 0.069844
H6    H     H_    0.351726 0.103483 0.800713 0.150405
H7    H     H_    0.027507 0.356604 0.784136 0.169236
C31   C     C_3   0.644147 0.268320 0.739317 -0.095431
C32   C     C_3   0.557322 0.267701 0.776218 -0.129872
H8    H     H_    0.478095 0.344220 0.789617 0.203341
H9    H     H_    0.637708 0.344926 0.721706 0.148803
H10   H     H_    0.487908 0.154782 0.738832 0.171277
C33   C     C_1   0.688962 0.205612 0.902290 0.048024
C34   C     C_1   0.635144 0.132700 0.617955 0.061234
C35   C     C_3   0.743323 0.184055 0.772110 0.452812
C36   C     C_3   0.657650 0.183277 0.808309 -0.006149
C37   C     C_3   0.747650 0.082298 0.745510 0.240453
C38   C     C_3   0.649564 0.164494 0.712746 -0.017519
C39   C     C_3   0.663202 0.079311 0.781963 -0.164636
C40   C     C_3   0.562665 0.163556 0.748946 -0.144432
C41   C     C_1   0.670128 0.194307 0.860502 0.027429
C42   C     C_1   0.643055 0.150751 0.660260 0.043167
H11   H     H_    0.671200 0.002137 0.799645 0.133534
C43   C     C_R   0.632326 0.732968 0.381167 -0.000536
C44   C     C_R   0.746649 0.655295 0.367151 0.167721
C45   C     C_R   0.772147 0.634104 0.317550 -0.115678
C46   C     C_R   0.685997 0.689169 0.282967 -0.046720
C47   C     C_R   0.572837 0.767123 0.296996 0.280931
C48   C     C_R   0.546798 0.787711 0.345933 0.353622
C49   C     C_R   0.659147 0.585662 0.216600 0.393345
C50   C     C_R   0.652581 0.569942 0.167572 -0.104658
C51   C     C_R   0.749894 0.677002 0.150256 0.197383
C52   C     C_R   0.754104 0.694240 0.200336 -0.105056
C53   C     C_R   0.707501 0.649839 0.232984 0.005014
C54   C     C_R   0.697734 0.614291 0.134011 -0.029831
H12   H     H_    0.615241 0.519216 0.155910 0.193879
H13   H     H_    0.857863 0.571236 0.305789 0.197722
H14   H     H_    0.787853 0.747010 0.213806 0.187866
C55   C     C_R   0.210710 0.147794 0.386248 -0.036073
C56   C     C_R   0.193783 0.064781 0.362731 -0.069796
C57   C     C_R   0.154841 0.081430 0.314902 -0.090630
C58   C     C_R   0.131367 0.181645 0.290408 0.028874
C59   C     C_R   0.139345 0.268619 0.315411 0.390769
C60   C     C_R   0.177622 0.251978 0.363004 -0.042346
C61   C     C_R   0.020615 0.295464 0.219662 -0.029129
C62   C     C_R   0.007682 0.311643 0.170075 -0.130677
C63   C     C_R   0.165900 0.117182 0.155371 0.247854
C64   C     C_R   0.179419 0.103022 0.205912 -0.033048
C65   C     C_R   0.108033 0.192225 0.238009 0.054051
C66   C     C_R   0.079559 0.223910 0.137601 0.063258
H15   H     H_    0.216617 0.984566 0.380221 0.209426
H16   H     H_    0.962627 0.364174 0.243764 0.166400
H17   H     H_    0.938057 0.392202 0.156921 0.110525
H18   H     H_    0.147163 0.014424 0.296417 0.210511
H19   H     H_    0.248111 0.023890 0.220296 0.204280
H20   H     H_    0.188510 0.318163 0.380415 0.205769
C67   C     C_R   0.647388 0.137750 0.385491 0.025222
C68   C     C_R   0.592306 0.254459 0.373037 0.336552
C69   C     C_R   0.612828 0.286875 0.327740 -0.074318
C70   C     C_R   0.687967 0.203199 0.294620 -0.056682
C71   C     C_R   0.742353 0.087368 0.307215 -0.027978
C72   C     C_R   0.723214 0.054637 0.352064 0.326929
C73   C     C_R   0.813955 0.177808 0.224301 0.405651
C74   C     C_R   0.827087 0.184168 0.174646 0.339396
C75   C     C_R   0.622024 0.311376 0.166631 0.325569
C76   C     C_R   0.608826 0.301906 0.216308 -0.089395
C77   C     C_R   0.704218 0.232764 0.245169 -0.058450
C78   C     C_R   0.731532 0.250141 0.145146 -0.049029
H21   H     H_    0.569519 0.376789 0.318324 0.205710
H22   H     H_    0.523453 0.344001 0.231748 0.197022
H23   H     H_    0.797012 0.021090 0.281474 0.212447
O14   O     O_R   0.819250 0.149410 0.965240 -0.477810
O15   O     O_R   0.006940 0.180310 0.968270 -0.476052
C79   C     C_R   0.050576 0.234283 0.948255 0.560703
O16   O     O_R   0.028420 0.332670 0.963010 -0.494658
O17   O     O_R   0.810130 0.520390 0.966030 -0.487239
C80   C     C_R   0.711712 0.562227 0.946619 0.565051
O18   O     O_R   0.636050 0.541380 0.962520 -0.473509
O19   O     O_R   0.666480 0.323610 0.968170 -0.490140
C81   C     C_R   0.721984 0.223770 0.949418 0.561575
O20   O     O_R   0.817280 0.156800 0.072180 -0.422059
O21   O     O_R   0.005110 0.187160 0.067410 -0.447592
C82   C     C_R   0.046452 0.244740 0.086725 0.592768
O22   O     O_R   0.026450 0.340060 0.069950 -0.502307
O23   O     O_R   0.808300 0.527240 0.065170 -0.478427
C83   C     C_R   0.709718 0.570849 0.084640 0.574087
O24   O     O_R   0.634070 0.548770 0.069460 -0.485146
O25   O     O_R   0.664650 0.330470 0.067300 -0.432290
C84   C     C_R   0.750256 0.254965 0.092809 0.577200
Cr4   Cr    Cr6+3 0.909770 0.175810 0.018240 1.164005
Cr5   Cr    Cr6+3 0.913300 0.427650 0.016090 1.111158
Cr6   Cr    Cr6+3 0.657770 0.431010 0.016900 1.138736
O26   O     O_3   0.826940 0.344820 0.017080 -0.340330
N1    N     N_R   0.245752 0.307536 0.734715 0.109619
O27   O     O_R   0.257760 0.368212 0.768676 -0.292516
O28   O     O_R   0.269305 0.318042 0.689961 -0.293628
N2    N     N_R   0.853776 0.981284 0.730011 0.137661
O29   O     O_R   0.929309 0.918089 0.762196 -0.179479
O30   O     O_R   0.873716 0.953535 0.684271 -0.253153
F1    F     F_    0.837433 0.193058 0.784901 -0.542389
N3    N     N_R   0.835952 0.595714 0.402334 0.105185
O31   O     O_R   0.942744 0.553571 0.390052 -0.269280
O32   O     O_R   0.812423 0.572792 0.445139 -0.308909
N4    N     N_R   0.877184 0.627092 0.718937 0.111714
O33   O     O_R   0.967188 0.525378 0.720967 -0.272908
O34   O     O_R   0.883494 0.709041 0.697370 -0.235843
F2    F     F_    0.613687 0.542568 0.248256 -0.615773
N5    N     N_R   0.794466 0.726483 0.116857 0.106061
O35   O     O_R   0.749112 0.759623 0.074101 -0.275117
O36   O     O_R   0.872189 0.750318 0.130949 -0.269548
N6    N     N_R   0.483268 0.823858 0.261759 0.125003
O37   O     O_R   0.383486 0.833925 0.268919 -0.248660
O38   O     O_R   0.499525 0.869335 0.223338 -0.314161
F3    F     F_    0.438664 0.868344 0.358970 -0.607425
N7    N     N_R   0.240822 0.024492 0.123311 0.106388
O39   O     O_R   0.259905 0.044382 0.079168 -0.295957
O40   O     O_R   0.297617 0.919997 0.139329 -0.224178
F4    F     F_    0.119782 0.365732 0.292715 -0.605838
F5    F     F_    0.518729 0.336700 0.404402 -0.579581
F6    F     F_    0.908363 0.114280 0.251807 -0.601095
F7    F     F_    0.933474 0.122801 0.155187 -0.581210
N8    N     N_R   0.459285 0.718016 0.793303 0.092256
O41   O     O_R   0.375837 0.743467 0.763189 -0.271188
O42   O     O_R   0.442672 0.714351 0.839581 -0.281820
F8    F     F_    0.527148 0.376098 0.139638 -0.560269
F9    F     F_    0.774501 0.940687 0.361392 -0.586630
F10   F     F_    0.092688 0.015963 0.785517 -0.480077
F11   F     F_    0.968455 0.221212 0.713668 -0.542249

loop_
_geom_bond_atom_site_label_1
_geom_bond_atom_site_label_2
_geom_bond_distance
_ccdc_geom_bond_type
C48   F3    1.358189 S    
C44   N3    1.441027 S    
C57   C58   1.403415 A    
C37   C39   1.537489 S    
N6    O37   1.301113 A    
C46   C47   1.404321 A    
N3    O31   1.301659 A    
C76   H22   1.083201 S    
C32   H8    1.109788 S    
C21   C79   1.429917 S    
O21   C82   1.275556 A    
N7    O39   1.301246 A    
C80   O18   1.269017 A    
C26   C28   1.549236 S    
O4    Cr2   1.922351 S    
C55   C56   1.403778 A    
C23   C24   1.547903 S    
C33   C81   1.430258 S    
C4    O9    1.264881 A    
Cr5   O26   1.981494 S    
O8    Cr1   1.926058 S    
C63   C64   1.405717 A    
C12   C17   1.458717 S    
C14   C18   1.456972 S    
O18   Cr6   2.036632 S    
N3    O32   1.301385 A    
O20   C84   1.295922 A    
C82   O22   1.265804 A    
O21   Cr4   1.925123 S    
O4    C2    1.274392 A    
C70   C71   1.399247 A    
N2    O29   1.300181 A    
C32   C36   1.542328 S    
C49   F2    1.358969 S    
C62   C66   1.404332 A    
O16   Cr5   2.041753 S    
C35   C37   1.525281 S    
C56   H15   1.082757 S    
C20   F10   1.382225 S    
C76   C77   1.401827 A    
C33   C41   1.202947 T    
C68   F5    1.357298 S    
C31   C32   1.557160 S    
C67   C72   1.408561 A    
C23   H7    1.108919 S    
H10   C40   1.109720 S    
C2    C10   1.425037 S    
C25   N1    1.457299 S    
C75   C76   1.395274 A    
C64   H19   1.081147 S    
C83   O24   1.269555 A    
C11   H4    1.109731 S    
C7    C8    1.540314 S    
C13   C15   1.538479 S    
C8    H1    1.109024 S    
C43   C44   1.414745 A    
C50   C54   1.401739 A    
C74   C78   1.405061 A    
C59   F4    1.358106 S    
N5    O36   1.301526 A    
C47   N6    1.439121 S    
C73   C77   1.403414 A    
C1    C34   1.430937 S    
N8    O42   1.300164 A    
C58   C65   1.469359 S    
O24   Cr6   2.042065 S    
N6    O38   1.301195 A    
Cr3   O13   1.981283 S    
C35   C36   1.533565 S    
Cr4   O26   1.972330 S    
H5    C28   1.108882 S    
C68   C69   1.399263 A    
N7    O40   1.301660 A    
C23   C25   1.539000 S    
C15   C16   1.538509 S    
C8    C12   1.545207 S    
N1    O27   1.300124 A    
C20   C24   1.535118 S    
C25   C27   1.540007 S    
O1    Cr1   2.043876 S    
C6    C55   1.469111 S    
C3    C22   1.429058 S    
C47   C48   1.383354 A    
C70   C77   1.470192 S    
O10   Cr2   1.925360 S    
Cr1   O13   1.972574 S    
O1    C3    1.267462 A    
O20   Cr4   2.042588 S    
C4    C67   1.469332 S    
Cr6   O26   1.976727 S    
C19   C20   1.536240 S    
C9    C80   1.426320 S    
C56   C57   1.395152 A    
O6    C3    1.273019 A    
C54   C83   1.452179 S    
C26   C30   1.461831 S    
C9    C17   1.200742 T    
O5    Cr3   2.034947 S    
C8    C16   1.560516 S    
C13   H3    1.109406 S    
C38   C40   1.547078 S    
C35   F1    1.382107 S    
C12   C15   1.529398 S    
C11   C12   1.549945 S    
O23   Cr5   1.924172 S    
C74   F7    1.355728 S    
C13   C14   1.542893 S    
C63   N7    1.441721 S    
O7    Cr1   2.040302 S    
O8    C4    1.277547 A    
C19   F11   1.382263 S    
O12   C6    1.277728 A    
C49   C50   1.374380 A    
O15   C79   1.274038 A    
C34   C42   1.203527 T    
N5    O35   1.301412 A    
C19   C23   1.548049 S    
C78   C84   1.471490 S    
C21   C29   1.202734 T    
C36   C41   1.461777 S    
N8    O41   1.300138 A    
C7    N4    1.455778 S    
Cr2   O13   1.976976 S    
C63   C66   1.413056 A    
C72   F9    1.358715 S    
O19   C81   1.271548 A    
N4    O34   1.300225 A    
C52   C53   1.398621 A    
C15   N8    1.457603 S    
C71   C72   1.383408 A    
C1    O3    1.266696 A    
C38   C42   1.463611 S    
C7    C11   1.540879 S    
C61   C62   1.381786 A    
C32   C40   1.556636 S    
O14   Cr4   2.043656 S    
C79   O16   1.268181 A    
C19   C26   1.533296 S    
C57   H18   1.083165 S    
C24   C27   1.543920 S    
N2    O30   1.300169 A    
C5    C43   1.452339 S    
C25   C26   1.532272 S    
C27   C28   1.562192 S    
C36   C39   1.541428 S    
H2    C16   1.109953 S    
O2    Cr1   1.924499 S    
C51   C52   1.402270 A    
O9    Cr2   2.039048 S    
C51   N5    1.439842 S    
C49   C53   1.393544 A    
O17   Cr5   1.918760 S    
N1    O28   1.300218 A    
C45   C46   1.397918 A    
O23   C83   1.271906 A    
O6    Cr3   1.923694 S    
O25   Cr6   1.919379 S    
C55   C60   1.403597 A    
O11   Cr3   2.040827 S    
C2    O5    1.269028 A    
C31   C35   1.545172 S    
O19   Cr6   1.925655 S    
C69   C70   1.403363 A    
O25   C84   1.302081 A    
O15   Cr4   1.926461 S    
N4    O33   1.299715 A    
C69   H21   1.083203 S    
C7    C14   1.525058 S    
O2    C1    1.272002 A    
O17   C80   1.273598 A    
C44   C45   1.400625 A    
C11   C13   1.559725 S    
C60   H20   1.083210 S    
C73   C74   1.388217 A    
C24   C29   1.461240 S    
C51   C54   1.416150 A    
C22   C30   1.202428 T    
C52   H14   1.083546 S    
C31   C38   1.543380 S    
C50   H12   1.081371 S    
O7    C6    1.267466 A    
C39   H11   1.108885 S    
C5    O11   1.269320 A    
C46   C53   1.446901 S    
C75   C78   1.410023 A    
C75   F8    1.357332 S    
C61   H16   1.083636 S    
C64   C65   1.405938 A    
O12   Cr3   1.917152 S    
C45   H13   1.083921 S    
C73   F6    1.358559 S    
C61   C65   1.395723 A    
C37   C38   1.528965 S    
O3    Cr2   2.043251 S    
C27   H6    1.110262 S    
C58   C59   1.405483 A    
C10   C18   1.199925 T    
C39   C40   1.557924 S    
C67   C68   1.408053 A    
C37   N2    1.457131 S    
O10   C5    1.272460 A    
C43   C48   1.405038 A    
O14   C81   1.266784 A    
C59   C60   1.386370 A    
O22   Cr5   2.035383 S    
C71   H23   1.083476 S    
C20   C28   1.548316 S    
C62   H17   1.084463 S    
C14   C16   1.546843 S    
C66   C82   1.456268 S    
C31   H9    1.109226 S    
