data_mof_unit_23541.cif
_audit_creation_date              2012-12-10T18:05:56-0500
_audit_creation_method            fapswitch 2.2
_symmetry_space_group_name_H-M    P1
_symmetry_Int_Tables_number       1
_space_group_crystal_system       triclinic
_cell_length_a                    12.796804
_cell_length_b                    13.094624
_cell_length_c                    14.912439
_cell_angle_alpha                 93.919755
_cell_angle_beta                  103.263579
_cell_angle_gamma                 81.984936
_cell_volume                      2406.73554352

loop_
_atom_site_label
_atom_site_type_symbol
_atom_type_description
_atom_site_fract_x
_atom_site_fract_y
_atom_site_fract_z
_atom_type_partial_charge
C1    C     C_R   0.439637 0.691249 0.493123 0.859880
C2    C     C_R   0.524247 0.589465 0.824312 0.031468
C3    C     C_R   0.506430 0.500185 0.769039 -0.051917
C4    C     C_R   0.501818 0.500665 0.672620 0.902716
C5    C     C_R   0.489571 0.409869 0.804315 -0.291673
C6    C     C_R   0.700330 0.076722 0.640837 -0.143868
C7    C     C_R   0.595288 0.202133 0.533887 -0.063179
C8    C     C_R   0.302365 0.835164 0.431015 -0.314312
C9    C     C_R   0.271518 0.939781 0.415153 0.055816
C10   C     C_R   0.344282 0.009760 0.453786 -0.167567
C11   C     C_R   0.446381 0.975975 0.511028 0.041940
C12   C     C_R   0.483550 0.402039 0.083189 0.090612
C13   C     C_R   0.468115 0.873546 0.538303 0.097569
C14   C     C_R   0.528005 0.040580 0.541486 0.062356
C15   C     C_R   0.619247 0.010728 0.613774 0.145862
C16   C     C_R   0.560361 0.309172 0.511630 0.838434
C17   C     C_R   0.626984 0.915142 0.654830 -0.035901
C18   C     C_R   0.554549 0.846105 0.613594 -0.311053
C19   C     C_R   0.522370 0.132959 0.498829 -0.235107
C20   C     C_R   0.686811 0.173159 0.602763 -0.224013
C21   C     C_R   0.401435 0.801435 0.490334 -0.091180
C22   C     C_R   0.095879 0.335147 0.378931 -0.292511
C23   C     C_R   0.534386 0.674445 0.067887 -0.196008
C24   C     C_R   0.798234 0.629894 0.612795 -0.034934
C25   C     C_R   0.903181 0.650505 0.647767 -0.231796
C26   C     C_R   0.988714 0.596306 0.613942 0.124503
C27   C     C_R   0.967435 0.523023 0.538023 -0.065135
C28   C     C_R   0.498721 0.497822 0.327465 0.858463
C29   C     C_R   0.858142 0.498402 0.509065 0.194970
C30   C     C_R   0.048080 0.471017 0.490899 -0.012199
C31   C     C_R   0.022503 0.387508 0.427705 0.138646
C32   C     C_R   0.921853 0.358135 0.408656 -0.303504
C33   C     C_R   0.839272 0.413315 0.443319 0.106391
C34   C     C_R   0.537441 0.676832 0.975859 -0.212610
C35   C     C_R   0.151890 0.499710 0.498687 -0.088849
C36   C     C_R   0.196821 0.365596 0.392205 0.250348
C37   C     C_R   0.479975 0.402032 0.177066 -0.075005
C38   C     C_R   0.496550 0.493304 0.231148 -0.145888
C39   C     C_R   0.514677 0.582492 0.195156 -0.246089
C40   C     C_R   0.516319 0.584108 0.103318 0.121813
C41   C     C_R   0.500887 0.494261 0.046740 0.041467
C42   C     C_2   0.463638 0.308595 0.221409 0.385732
C43   C     C_2   0.706794 0.883871 0.740787 0.359806
C44   C     C_2   0.164938 0.973998 0.355044 0.401424
C45   C     C_R   0.522390 0.588530 0.917823 0.084973
C46   C     C_R   0.504284 0.496623 0.953793 0.041973
C47   C     C_R   0.489604 0.407006 0.896786 0.123191
C48   C     C_R   0.475733 0.315614 0.932844 -0.213235
C49   C     C_R   0.474282 0.312534 0.025291 -0.162421
H1    H     H_    0.773774 0.055743 0.691812 0.194346
H2    H     H_    0.733442 0.669376 0.642071 0.134080
H3    H     H_    0.918924 0.706071 0.704928 0.165132
H4    H     H_    0.546355 0.743423 0.111536 0.153898
H5    H     H_    0.551550 0.748289 0.951060 0.157248
H6    H     H_    0.476956 0.341750 0.759383 0.158025
H7    H     H_    0.466848 0.245990 0.889560 0.162424
H8    H     H_    0.467223 0.238866 0.050014 0.204721
H9    H     H_    0.745092 0.226395 0.629834 0.170342
H10   H     H_    0.508406 0.291721 0.291046 0.047931
H11   H     H_    0.732005 0.802783 0.753913 0.050355
H12   H     H_    0.459207 0.154802 0.439267 0.149970
H13   H     H_    0.110481 0.917899 0.325265 0.064791
H14   H     H_    0.238163 0.327513 0.271131 0.214281
H15   H     H_    0.283886 0.237865 0.351505 0.189204
H16   H     H_    0.144484 0.537191 0.674889 0.203002
H17   H     H_    0.126948 0.665121 0.641788 0.181760
H18   H     H_    0.720506 0.384301 0.334676 0.170175
H19   H     H_    0.744649 0.299664 0.418557 0.170634
H20   H     H_    0.479782 0.739776 0.791769 0.187211
H21   H     H_    0.615970 0.701857 0.817523 0.185792
H22   H     H_    0.249975 0.779770 0.395564 0.159107
H23   H     H_    0.318443 0.090417 0.441165 0.162824
H24   H     H_    0.562810 0.772012 0.643685 0.168969
H25   H     H_    0.903868 0.293656 0.360153 0.162517
H26   H     H_    0.074331 0.272684 0.329448 0.197097
H27   H     H_    0.527202 0.651196 0.239381 0.152010
H28   H     H_    0.178841 0.566415 0.537645 0.136595
N1    N     N_R   0.222190 0.444670 0.452360 -0.101209
N2    N     N_R   0.776970 0.554790 0.547140 -0.114786
N3    N     N_3   0.272886 0.317006 0.341019 -0.381093
N4    N     N_3   0.094615 0.607865 0.668257 -0.459380
N5    N     N_3   0.737743 0.378495 0.406456 -0.360968
N6    N     N_3   0.540866 0.680328 0.783599 -0.489980
O1    O     O_R   0.366740 0.627160 0.477250 -0.617911
O2    O     O_2   0.739863 0.947321 0.800629 -0.570245
O3    O     O_2   0.136507 0.064841 0.337982 -0.602433
O4    O     O_R   0.544830 0.662520 0.507680 -0.614154
O5    O     O_R   0.410940 0.482340 0.616930 -0.622159
O6    O     O_R   0.589030 0.517700 0.647360 -0.610321
O7    O     O_R   0.455170 0.337480 0.492320 -0.598482
O8    O     O_R   0.633260 0.372840 0.522750 -0.606404
O9    O     O_R   0.410970 0.482300 0.352640 -0.592201
O10   O     O_R   0.589060 0.517660 0.383070 -0.595895
O11   O     O_2   0.396307 0.253063 0.183108 -0.584413
Zn1   Zn    Zn3+2 0.381090 0.476390 0.479680 0.961724
Zn2   Zn    Zn3+2 0.618910 0.523610 0.520320 0.955469

loop_
_geom_bond_atom_site_label_1
_geom_bond_atom_site_label_2
_ccdc_geom_bond_type
C1    O4    A    
C1    C21   S    
C27   C29   A    
C12   C49   A    
O7    Zn1   S    
C45   C46   A    
C1    O1    A    
C16   O7    A    
C5    C47   A    
C26   C27   A    
C37   C38   A    
C13   C18   A    
C32   H25   S    
C38   C39   A    
C11   C14   A    
C23   C40   A    
C29   C33   A    
C12   C37   A    
C49   H8    S    
C15   C17   A    
C37   C42   S    
O8    Zn2   S    
C47   C48   A    
C8    C9    A    
C9    C44   S    
C41   C46   A    
C9    C10   A    
C24   H2    S    
C6    C15   A    
O5    Zn1   S    
C27   C30   A    
H15   N3    S    
C2    N6    S    
C22   H26   S    
C44   O3    D    
C23   H4    S    
H14   N3    S    
C2    C45   A    
C22   C31   A    
C43   O2    D    
C24   C25   A    
C36   N3    S    
C39   C40   A    
C44   H13   S    
C25   C26   A    
C35   H28   S    
O9    Zn1   S    
C28   O10   A    
O1    Zn1   S    
C17   C43   S    
C12   C41   A    
H20   N6    S    
C24   N2    A    
H16   N4    S    
C31   C32   A    
C29   N2    A    
C28   C38   S    
N1    Zn1   S    
C23   C34   A    
O4    Zn2   S    
C17   C18   A    
C13   C21   A    
C28   O9    A    
C34   C45   A    
C39   H27   S    
C6    H1    S    
H21   N6    S    
C43   H11   S    
C16   O8    A    
C30   C35   A    
C48   C49   A    
C34   H5    S    
O10   Zn2   S    
C7    C19   A    
C26   N4    S    
C20   H9    S    
C3    C4    S    
C6    C20   A    
C4    O6    A    
C33   N5    S    
C48   H7    S    
C46   C47   A    
C7    C16   S    
C8    H22   S    
C42   O11   D    
C14   C19   A    
C5    H6    S    
C3    C5    A    
C8    C21   A    
C42   H10   S    
C4    O5    A    
C18   H24   S    
C22   C36   A    
C35   N1    A    
H19   N5    S    
C32   C33   A    
O6    Zn2   S    
C2    C3    A    
C25   H3    S    
N2    Zn2   S    
C36   N1    A    
H17   N4    S    
C11   C13   A    
C30   C31   A    
C19   H12   S    
C10   C11   A    
H18   N5    S    
C7    C20   A    
C14   C15   A    
C40   C41   A    
C10   H23   S    
