data_mof_unit_14329.cif
_audit_creation_date              2012-12-11T14:39:21-0500
_audit_creation_method            fapswitch 2.2
_symmetry_space_group_name_H-M    P1
_symmetry_Int_Tables_number       1
_space_group_crystal_system       triclinic
_cell_length_a                    7.220513
_cell_length_b                    14.054098
_cell_length_c                    16.32029
_cell_angle_alpha                 90.00028
_cell_angle_beta                  97.321759
_cell_angle_gamma                 89.999385
_cell_volume                      1642.64304978

loop_
_atom_site_label
_atom_site_type_symbol
_atom_type_description
_atom_site_fract_x
_atom_site_fract_y
_atom_site_fract_z
_atom_type_partial_charge
O1    O     O_R   0.525340 0.338340 0.164530 -0.543225
O2    O     O_R   0.474660 0.661660 0.835470 -0.543225
O3    O     O_R   0.974660 0.838340 0.835470 -0.543236
O4    O     O_R   0.025340 0.161660 0.164530 -0.543236
O5    O     O_R   0.253520 0.352000 0.336710 -0.531064
O6    O     O_R   0.746480 0.648000 0.663290 -0.531064
O7    O     O_R   0.246480 0.852000 0.663290 -0.531042
O8    O     O_R   0.753520 0.148000 0.336710 -0.531042
O9    O     O_R   0.083330 0.168380 0.337300 -0.528533
O10   O     O_R   0.916670 0.831620 0.662700 -0.528533
O11   O     O_R   0.416670 0.668380 0.662700 -0.528512
O12   O     O_R   0.583330 0.331620 0.337300 -0.528512
C1    C     C_R   0.432222 0.369050 0.363401 0.682194
C2    C     C_R   0.567778 0.630950 0.636599 0.682194
C3    C     C_R   0.067772 0.869053 0.636602 0.682196
C4    C     C_R   0.932228 0.130947 0.363398 0.682196
O13   O     O_R   0.195840 0.349670 0.165140 -0.544634
O14   O     O_R   0.804160 0.650330 0.834860 -0.544634
O15   O     O_R   0.304160 0.849670 0.834860 -0.544641
O16   O     O_R   0.695840 0.150330 0.165140 -0.544641
C5    C     C_R   0.357201 0.372012 0.137711 0.727103
C6    C     C_R   0.642799 0.627988 0.862289 0.727103
C7    C     C_R   0.142800 0.872004 0.862294 0.727098
C8    C     C_R   0.857200 0.127996 0.137706 0.727098
O17   O     O_3   0.387830 0.193120 0.250910 -0.371648
O18   O     O_3   0.612170 0.806880 0.749090 -0.371648
O19   O     O_3   0.112170 0.693120 0.749090 -0.371636
O20   O     O_3   0.887830 0.306880 0.250910 -0.371636
V1    V     V_3+5 0.113010 0.264540 0.250910 1.476244
V2    V     V_3+5 0.886990 0.735460 0.749090 1.476244
V3    V     V_3+5 0.386990 0.764540 0.749090 1.476267
V4    V     V_3+5 0.613010 0.235460 0.250910 1.476267
H1    H     H_    0.855842 0.803079 0.262112 0.140049
H2    H     H_    0.144157 0.196921 0.737888 0.140049
H3    H     H_    0.644421 0.303090 0.737878 0.140048
H4    H     H_    0.355579 0.696910 0.262122 0.140048
C9    C     C_R   0.030247 0.198521 0.529590 -0.171186
C10   C     C_R   0.969753 0.801479 0.470410 -0.171186
C11   C     C_R   0.469816 0.698520 0.470404 -0.171141
C12   C     C_R   0.530184 0.301480 0.529596 -0.171141
C13   C     C_R   0.075938 0.233185 0.609664 0.427274
C14   C     C_R   0.924062 0.766815 0.390336 0.427274
C15   C     C_R   0.424041 0.733181 0.390333 0.427282
C16   C     C_R   0.575959 0.266819 0.609667 0.427282
C17   C     C_R   0.108916 0.170148 0.675651 -0.089210
C18   C     C_R   0.891084 0.829852 0.324349 -0.089210
C19   C     C_R   0.390921 0.670141 0.324354 -0.089229
C20   C     C_R   0.609079 0.329859 0.675646 -0.089229
C21   C     C_R   0.095854 0.072296 0.661988 -0.106878
C22   C     C_R   0.904146 0.927704 0.338012 -0.106878
C23   C     C_R   0.403979 0.572287 0.338021 -0.106894
C24   C     C_R   0.596021 0.427713 0.661979 -0.106894
C25   C     C_R   0.049232 0.035296 0.581341 0.109446
C26   C     C_R   0.950768 0.964704 0.418659 0.109446
C27   C     C_R   0.450709 0.535292 0.418661 0.109450
C28   C     C_R   0.549291 0.464708 0.581339 0.109450
C29   C     C_R   0.016154 0.099463 0.513974 0.032713
C30   C     C_R   0.983845 0.900537 0.486026 0.032713
C31   C     C_R   0.483858 0.599462 0.486025 0.032713
C32   C     C_R   0.516142 0.400538 0.513975 0.032713
C33   C     C_R   0.032759 0.936095 0.567118 -0.110597
C34   C     C_R   0.967240 0.063905 0.432881 -0.110597
C35   C     C_R   0.467210 0.436092 0.432885 -0.110589
C36   C     C_R   0.532790 0.563907 0.567115 -0.110589
H5    H     H_    0.004569 0.250064 0.480189 0.138931
H6    H     H_    0.995431 0.749936 0.519811 0.138931
H7    H     H_    0.495595 0.750067 0.519799 0.138911
H8    H     H_    0.504405 0.249933 0.480200 0.138911
H9    H     H_    0.121431 0.026160 0.715310 0.101728
H10   H     H_    0.878569 0.973840 0.284689 0.101728
H11   H     H_    0.378303 0.526150 0.284703 0.101760
H12   H     H_    0.621697 0.473850 0.715297 0.101760
H13   H     H_    0.137907 0.066551 0.056387 0.158387
H14   H     H_    0.862092 0.933449 0.943613 0.158387
H15   H     H_    0.362222 0.566805 0.943806 0.158334
H16   H     H_    0.637777 0.433194 0.056193 0.158334
C37   C     C_2   0.149912 0.942152 0.930529 -0.323641
C38   C     C_2   0.850088 0.057848 0.069471 -0.323641
C39   C     C_2   0.350120 0.442212 0.069518 -0.323637
C40   C     C_2   0.649880 0.557788 0.930482 -0.323637
C41   C     C_2   0.996176 0.965581 0.965536 -0.119524
C42   C     C_2   0.003824 0.034419 0.034464 -0.119524
C43   C     C_2   0.503794 0.465520 0.034418 -0.119467
C44   C     C_2   0.496206 0.534480 0.965581 -0.119467
H17   H     H_    0.716399 0.025770 0.046748 0.129554
H18   H     H_    0.283600 0.974230 0.953252 0.129554
H19   H     H_    0.783485 0.525536 0.953075 0.129560
H20   H     H_    0.216515 0.474463 0.046925 0.129560
Cl1   Cl    Cl    0.089715 0.356351 0.627238 -0.683537
Cl2   Cl    Cl    0.910285 0.643649 0.372762 -0.683537
Cl3   Cl    Cl    0.410332 0.856347 0.372753 -0.683543
Cl4   Cl    Cl    0.589668 0.143653 0.627247 -0.683543

loop_
_geom_bond_atom_site_label_1
_geom_bond_atom_site_label_2
_ccdc_geom_bond_type
C13   Cl1   S    
O1    C5    A    
C12   C32   A    
C27   C31   A    
O13   V1    S    
O3    C7    A    
C40   C44   D    
O15   V3    S    
C41   C42   S    
C29   C34   A    
C31   C36   A    
C22   C26   A    
C4    C34   S    
C32   C35   A    
O20   V1    S    
O9    C4    A    
C10   C14   A    
C40   H19   S    
O10   C3    A    
C26   C30   A    
O4    C8    A    
O11   C2    A    
H15   C44   S    
H4    C19   S    
C14   C18   A    
O10   V2    S    
C10   C30   A    
C25   C33   A    
O16   C8    A    
C27   C35   A    
O2    C6    A    
C28   C36   A    
O14   V2    S    
C37   C41   D    
O5    C1    A    
O4    V1    S    
C16   Cl4   S    
O9    V1    S    
C30   C33   A    
O7    C3    A    
O11   V3    S    
O18   V3    S    
O8    C4    A    
C21   H9    S    
O12   V4    S    
O19   V2    S    
H1    C18   S    
C23   H11   S    
H3    C20   S    
H16   C43   S    
C39   H20   S    
O5    V1    S    
O7    V3    S    
O8    V4    S    
C10   H6    S    
C25   C29   A    
C19   C23   A    
C26   C34   A    
O1    V4    S    
O13   C5    A    
C28   C32   A    
C9    H5    S    
O2    V3    S    
C14   Cl2   S    
O3    V2    S    
O15   C7    A    
C24   H12   S    
O6    C2    A    
C38   C42   D    
C43   C44   S    
C1    C35   S    
C17   C21   A    
C11   C31   A    
C5    C39   S    
C3    C33   S    
H2    C17   S    
C7    C37   S    
C2    C36   S    
C38   H17   S    
C8    C38   S    
O6    V2    S    
C37   H18   S    
H14   C41   S    
H13   C42   S    
O16   V4    S    
O14   C6    A    
C11   H7    S    
C11   C15   A    
C18   C22   A    
C22   H10   S    
C6    C40   S    
C39   C43   D    
O17   V4    S    
C21   C25   A    
C23   C27   A    
C9    C13   A    
C15   Cl3   S    
C16   C20   A    
C12   C16   A    
O12   C1    A    
C12   H8    S    
C13   C17   A    
C20   C24   A    
C15   C19   A    
C9    C29   A    
C24   C28   A    
