data_mof_unit_59939.cif
_audit_creation_date              2013-03-05T15:46:05-0500
_audit_creation_method            fapswitch 2.2
_symmetry_space_group_name_H-M    P1
_symmetry_Int_Tables_number       1
_space_group_crystal_system       triclinic
_cell_length_a                    6.936273
_cell_length_b                    23.060212
_cell_length_c                    23.590574
_cell_angle_alpha                 112.247096
_cell_angle_beta                  89.670769
_cell_angle_gamma                 90.439834
_cell_volume                      3492.34849663

loop_
_atom_site_label
_atom_site_type_symbol
_atom_site_description
_atom_site_fract_x
_atom_site_fract_y
_atom_site_fract_z
_atom_type_partial_charge
O1    O     O_R   0.494720 0.434890 0.424760 -0.589724
O2    O     O_R   0.819720 0.445970 0.545570 -0.596824
O3    O     O_R   0.993930 0.565110 0.575240 -0.588851
C1    C     C_R   0.650591 0.433847 0.562614 0.926909
O4    O     O_R   0.824180 0.427610 0.423390 -0.599317
O5    O     O_R   0.998420 0.546620 0.452190 -0.595880
C2    C     C_R   0.657157 0.409466 0.399020 0.938913
O6    O     O_R   0.490230 0.453380 0.547810 -0.594055
O7    O     O_3   0.662090 0.539070 0.509590 -0.273052
V1    V     V_3+5 0.935410 0.492750 0.498220 1.145400
O8    O     O_R   0.328360 0.554030 0.454430 -0.595750
C3    C     C_R   0.160010 0.566068 0.437363 0.925486
O9    O     O_R   0.323900 0.572390 0.576610 -0.599666
C4    C     C_R   0.156720 0.590541 0.600971 0.940312
V2    V     V_3+5 0.435890 0.507250 0.501780 1.145285
O10   O     O_3   0.159350 0.460930 0.490410 -0.273139
C5    C     C_R   0.072952 0.854567 0.839491 -0.136806
C6    C     C_R   0.161250 0.645322 0.660532 -0.136712
C7    C     C_R   0.351700 0.711825 0.748658 -0.212566
C8    C     C_R   0.330990 0.657490 0.696056 -0.141970
C9    C     C_R   0.009789 0.688625 0.679919 -0.284504
C10   C     C_R   0.030700 0.743969 0.732774 0.221276
C11   C     C_R   0.203452 0.755878 0.767308 0.207535
C12   C     C_R   0.224357 0.811233 0.820159 -0.261033
C13   C     C_R   0.903227 0.842387 0.803962 -0.142076
C14   C     C_R   0.882467 0.788025 0.751403 -0.229664
H1    H     H_    0.355060 0.819477 0.847136 0.153412
H2    H     H_    0.783802 0.874844 0.817330 0.131798
H3    H     H_    0.484811 0.719626 0.774394 0.141465
H4    H     H_    0.749358 0.780219 0.725666 0.127098
H5    H     H_    0.450449 0.625050 0.682651 0.139998
H6    H     H_    0.879040 0.680378 0.652966 0.138587
C15   C     C_R   0.234584 0.854829 0.099063 0.365347
C16   C     C_R   0.232224 0.820293 0.136896 -0.271944
H7    H     H_    0.352651 0.789715 0.134363 0.166210
C17   C     C_R   0.077315 0.823529 0.176678 0.025396
C18   C     C_R   0.919356 0.863206 0.178123 0.163758
C19   C     C_R   0.925508 0.898914 0.141051 -0.167765
H8    H     H_    0.808994 0.930939 0.144060 0.168624
C20   C     C_R   0.080273 0.895313 0.101188 -0.326879
N1    N     N_R   0.930334 0.758006 0.228838 -0.068872
N2    N     N_R   0.942850 0.723984 0.263469 -0.075787
C21   C     C_R   0.115238 0.715309 0.286156 0.099462
N3    N     N_R   0.274830 0.741951 0.272234 -0.081406
N4    N     N_R   0.262052 0.776078 0.237650 -0.083092
C22   C     C_R   0.089139 0.785347 0.215564 0.137857
C23   C     C_R   0.307160 0.665534 0.346375 -0.134136
H9    H     H_    0.439322 0.683765 0.334679 0.114979
C24   C     C_R   0.318095 0.629646 0.382827 -0.159390
H10   H     H_    0.458305 0.621296 0.398113 0.126693
C25   C     C_R   0.150236 0.604876 0.399191 -0.131246
C26   C     C_R   0.971442 0.617060 0.378100 -0.157781
H11   H     H_    0.838881 0.598807 0.389536 0.130851
C27   C     C_R   0.960615 0.652727 0.341636 -0.136452
H12   H     H_    0.820162 0.660876 0.326367 0.115119
C28   C     C_R   0.128166 0.677455 0.325163 0.124736
C29   C     C_R   0.463936 0.377224 0.618678 -0.160964
H13   H     H_    0.329637 0.391264 0.604614 0.128369
C30   C     C_R   0.457149 0.341333 0.655237 -0.126930
H14   H     H_    0.317696 0.328892 0.668280 0.115890
C31   C     C_R   0.627896 0.322256 0.675054 0.124541
C32   C     C_R   0.805412 0.339733 0.656897 -0.131297
H15   H     H_    0.939930 0.325984 0.671099 0.117501
C33   C     C_R   0.812220 0.375395 0.620260 -0.155299
H16   H     H_    0.951947 0.388012 0.607558 0.128075
C34   C     C_R   0.641684 0.394867 0.600735 -0.132081
N5    N     N_R   0.786259 0.270162 0.737181 -0.066263
N6    N     N_R   0.780484 0.237920 0.773700 -0.044365
C35   C     C_R   0.609435 0.219325 0.789870 0.192043
N7    N     N_R   0.444845 0.233276 0.766771 -0.042993
N8    N     N_R   0.450599 0.265596 0.730336 -0.065443
C36   C     C_R   0.621414 0.285064 0.714906 0.094876
C37   C     C_R   0.446126 0.187451 0.871035 0.366081
C38   C     C_R   0.440306 0.148038 0.904349 -0.265104
H17   H     H_    0.319541 0.151352 0.934727 0.179433
C39   C     C_R   0.592196 0.106967 0.901400 -0.181482
C40   C     C_R   0.751186 0.105305 0.863780 -0.126420
H18   H     H_    0.870606 0.074194 0.860504 0.126330
C41   C     C_R   0.755496 0.142414 0.828512 -0.082890
H19   H     H_    0.877678 0.138343 0.798471 0.139599
C42   C     C_R   0.603307 0.183357 0.830866 -0.062680
C43   C     C_R   0.572128 0.145254 0.160630 -0.138913
C44   C     C_R   0.661473 0.354724 0.339446 -0.136183
C45   C     C_R   0.852618 0.288460 0.251379 -0.222791
C46   C     C_R   0.831932 0.342812 0.303911 -0.141969
C47   C     C_R   0.509231 0.311159 0.320122 -0.287689
C48   C     C_R   0.530054 0.255804 0.267311 0.221281
C49   C     C_R   0.703553 0.244152 0.232785 0.216194
C50   C     C_R   0.724375 0.188809 0.179970 -0.281236
C51   C     C_R   0.401676 0.157146 0.196165 -0.144056
C52   C     C_R   0.380995 0.211490 0.248712 -0.233426
H20   H     H_    0.855680 0.180767 0.152997 0.142960
H21   H     H_    0.281608 0.124493 0.182785 0.133157
H22   H     H_    0.986329 0.280848 0.225654 0.136639
H23   H     H_    0.247287 0.219094 0.274437 0.128693
H24   H     H_    0.952014 0.375460 0.317278 0.138924
H25   H     H_    0.377930 0.319207 0.347097 0.139136
O11   O     O_R   0.743670 0.046700 0.952260 -0.598895
O12   O     O_R   0.409540 0.072400 0.076630 -0.602347
O13   O     O_R   0.235480 0.953360 0.047790 -0.560677
C53   C     C_R   0.576508 0.090543 0.101043 0.945879
O14   O     O_R   0.414170 0.054050 0.954440 -0.602080
O15   O     O_R   0.240140 0.934880 0.924740 -0.593588
C54   C     C_R   0.583339 0.066467 0.937801 0.941359
O16   O     O_R   0.739000 0.065180 0.075310 -0.598369
O17   O     O_3   0.571870 0.960980 0.990450 -0.224273
V3    V     V_3+5 0.298470 0.007240 0.001770 1.189094
O18   O     O_R   0.910180 0.927540 0.923320 -0.599617
C55   C     C_R   0.077412 0.909386 0.899013 0.940152
O19   O     O_R   0.905550 0.945890 0.045500 -0.557240
C56   C     C_R   0.073987 0.933491 0.062221 0.980083
V4    V     V_3+5 0.798010 0.992650 0.998130 1.206041
O20   O     O_3   0.074480 0.039020 0.009550 -0.285845
N9    N     N_R   0.297679 0.233573 0.881495 0.232376
O21   O     O_R   0.343496 0.291018 0.889682 -0.357909
O22   O     O_R   0.122938 0.221567 0.894392 -0.408096
N10   N     N_R   0.391403 0.845877 0.057016 0.229014
O23   O     O_R   0.423537 0.790300 0.015984 -0.385749
O24   O     O_R   0.525941 0.888301 0.068908 -0.406201
C57   C     C_3   0.743083 0.869824 0.218449 -0.414078
C58   C     C_3   0.788731 0.906588 0.286263 -0.268376
C59   C     C_3   0.611958 0.910277 0.326278 -0.892883
H26   H     H_    0.565995 0.862527 0.321942 0.269293
H27   H     H_    0.647737 0.937927 0.374943 0.247321
H28   H     H_    0.491046 0.933466 0.312589 0.257678
H29   H     H_    0.907404 0.884138 0.301717 0.206028
H30   H     H_    0.835570 0.954882 0.292676 0.196021
H31   H     H_    0.627041 0.895130 0.205034 0.193595
H32   H     H_    0.680443 0.823148 0.210978 0.206877

loop_
_geom_bond_atom_site_label_1
_geom_bond_atom_site_label_2
_geom_bond_distance
_ccdc_geom_bond_type
C39   C54   1.489671 S    
C2    C44   1.492079 S    
C48   C49   1.418396 A    
C15   N10   1.430261 S    
C48   C52   1.398309 A    
C6    C9    1.405274 A    
N1    N2    1.333307 A    
C4    C6    1.492293 S    
O2    C1    1.300268 A    
C7    C8    1.397279 A    
C12   H1    1.084164 S    
C29   C34   1.407641 A    
C1    O6    1.301286 A    
N9    O21   1.301382 A    
C51   C52   1.397166 A    
C23   C24   1.403813 A    
O17   V4    1.706483 S    
C40   H18   1.083156 S    
C57   C58   1.533937 S    
C13   H2    1.083336 S    
C18   C19   1.410337 A    
C43   C50   1.405144 A    
C38   C39   1.405847 A    
C17   C18   1.424821 A    
C58   H30   1.111833 S    
N10   O24   1.299149 A    
O5    C3    1.298572 A    
C19   H8    1.082754 S    
C16   H7    1.084022 S    
C46   H24   1.083341 S    
C29   C30   1.403748 A    
O17   V3    2.148273 S    
V2    O10   2.156323 S    
C25   C26   1.408128 A    
O18   C55   1.291366 A    
N5    C36   1.360614 A    
C37   C38   1.409012 A    
C47   H25   1.084131 S    
O19   C56   1.303133 A    
V3    O20   1.702046 S    
C32   C33   1.400957 A    
O8    V2    1.975370 S    
N6    C35   1.359370 A    
C24   C25   1.408021 A    
N1    C22   1.357847 A    
C17   C22   1.495688 S    
N7    N8    1.334185 A    
O1    V2    1.989569 S    
O7    V1    2.148333 S    
C16   C17   1.406226 A    
C30   H14   1.082486 S    
O9    C4    1.291438 A    
C35   N7    1.359892 A    
C37   C42   1.420371 A    
V4    O20   2.156332 S    
C26   C27   1.399807 A    
C20   C56   1.495297 S    
C40   C41   1.401364 A    
C53   O16   1.309323 A    
C9    H6    1.084136 S    
C27   C28   1.406868 A    
C30   C31   1.408836 A    
C5    C12   1.405339 A    
O11   V4    1.974765 S    
C38   H17   1.083360 S    
N5    N6    1.334466 A    
C15   C20   1.413856 A    
C39   C40   1.403172 A    
C41   C42   1.408478 A    
C47   C48   1.413854 A    
C13   C14   1.397122 A    
N4    C22   1.360548 A    
C37   N9    1.437874 S    
C57   H32   1.108347 S    
C58   H29   1.109686 S    
C33   C34   1.408550 A    
C7    C11   1.398345 A    
C21   N3    1.359742 A    
C32   H15   1.082553 S    
C23   H9    1.082708 S    
C11   C12   1.413896 A    
C15   C16   1.403193 A    
O14   V3    1.986188 S    
C45   H22   1.083813 S    
C45   C46   1.397090 A    
C50   H20   1.084140 S    
O14   C54   1.299079 A    
C58   C59   1.526192 S    
O3    C4    1.309788 A    
C31   C36   1.493634 S    
C44   C46   1.412582 A    
O16   V4    1.994009 S    
C14   H4    1.083797 S    
O6    V2    1.974257 S    
O9    V2    1.992569 S    
N2    C21   1.359534 A    
C59   H27   1.110286 S    
O2    V1    1.986001 S    
C3    C25   1.492723 S    
C26   H11   1.082858 S    
C51   H21   1.083350 S    
O4    C2    1.290659 A    
C27   H12   1.082715 S    
O13   V3    1.980119 S    
O12   C53   1.290651 A    
O1    C2    1.309438 A    
N3    N4    1.334486 A    
C45   C49   1.398233 A    
C5    C55   1.492152 S    
O5    V1    1.980141 S    
N9    O22   1.301030 A    
O8    C3    1.302974 A    
C57   H31   1.112894 S    
O12   V3    1.989631 S    
C43   C51   1.412555 A    
O15   C55   1.309768 A    
C5    C13   1.412557 A    
C33   H16   1.082633 S    
C59   H28   1.111024 S    
O7    V2    1.708029 S    
O4    V1    1.989440 S    
O3    V1    1.988160 S    
V1    O10   1.702053 S    
N10   O23   1.300673 A    
C19   C20   1.405072 A    
C29   H13   1.082670 S    
C18   C57   1.517498 S    
O11   C54   1.300302 A    
C43   C53   1.491928 S    
C6    C8    1.412585 A    
C31   C32   1.406777 A    
O19   V4    1.975410 S    
C35   C42   1.493804 S    
C52   H23   1.083807 S    
C41   H19   1.083159 S    
O18   V4    1.992487 S    
C21   C28   1.492364 S    
N8    C36   1.359577 A    
C44   C47   1.405233 A    
C49   C50   1.413753 A    
C1    C34   1.493715 S    
O13   C56   1.298629 A    
C24   H10   1.082781 S    
C10   C14   1.398278 A    
C10   C11   1.418339 A    
O15   V3    1.988034 S    
C59   H26   1.110975 S    
C9    C10   1.413803 A    
C23   C28   1.408530 A    
C8    H5    1.083325 S    
C7    H3    1.083797 S    
