data_mof_unit_13465.cif
_audit_creation_date              2012-12-10T20:28:45-0500
_audit_creation_method            fapswitch 2.2
_symmetry_space_group_name_H-M    P1
_symmetry_Int_Tables_number       1
_space_group_crystal_system       triclinic
_cell_length_a                    10.735576
_cell_length_b                    10.711335
_cell_length_c                    9.914389
_cell_angle_alpha                 90.89048
_cell_angle_beta                  88.774526
_cell_angle_gamma                 90.697968
_cell_volume                      1139.60040987

loop_
_atom_site_label
_atom_site_type_symbol
_atom_type_description
_atom_site_fract_x
_atom_site_fract_y
_atom_site_fract_z
_atom_type_partial_charge
C1    C     C_R   0.497342 0.260684 0.498561 1.042333
C2    C     C_R   0.416137 0.937166 0.588783 0.621173
C3    C     C_R   0.497009 0.872714 0.499990 -0.266255
C4    C     C_R   0.260502 0.508558 0.502612 0.998216
C5    C     C_R   0.559986 0.936458 0.396684 -0.133341
C6    C     C_3   0.696932 0.937468 0.357322 0.164362
C7    C     C_3   0.689224 0.079049 0.351472 1.035989
C8    C     C_R   0.512230 0.391317 0.069515 -0.014572
C9    C     C_R   0.491922 0.608275 0.073042 0.566371
C10   C     C_R   0.493044 0.608365 0.930385 0.655014
C11   C     C_R   0.513213 0.391377 0.926860 -0.149793
C12   C     C_R   0.061722 0.599278 0.600197 -0.257636
C13   C     C_3   0.427577 0.279857 0.923746 1.003553
C14   C     C_3   0.426717 0.280556 0.077347 0.095719
C15   C     C_R   0.499591 0.740023 0.500552 0.959523
C16   C     C_R   0.739644 0.503748 0.498907 0.968234
C17   C     C_R   0.118726 0.674161 0.703375 0.635269
C18   C     C_R   0.049161 0.752255 0.788980 0.250319
C19   C     C_R   0.922395 0.766172 0.767440 0.490740
C20   C     C_R   0.865282 0.700940 0.663114 0.366936
C21   C     C_R   0.931350 0.607576 0.586376 -0.257926
C22   C     C_R   0.127443 0.517303 0.508624 -0.256944
C23   C     C_R   0.064961 0.440640 0.416225 0.569931
C24   C     C_R   0.938420 0.442280 0.411041 0.606321
C25   C     C_R   0.871638 0.522032 0.496550 -0.262471
C26   C     C_R   0.554749 0.064598 0.392823 -0.260172
C27   C     C_R   0.487825 0.129271 0.492468 -0.283250
C28   C     C_R   0.409154 0.065632 0.582433 0.619502
F1    F     F_    0.126624 0.357112 0.335654 -0.572040
F2    F     F_    0.346172 0.877377 0.683053 -0.503194
F3    F     F_    0.759544 0.139311 0.448912 -0.606782
F4    F     F_    0.477379 0.718464 0.139297 -0.599247
F5    F     F_    0.483752 0.718870 0.867488 -0.491681
F6    F     F_    0.485355 0.175592 0.868689 -0.579568
F7    F     F_    0.241478 0.674239 0.728030 -0.541866
F8    F     F_    0.854815 0.849520 0.842375 -0.558926
F9    F     F_    0.880197 0.360665 0.326091 -0.539604
F10   F     F_    0.327475 0.127440 0.664572 -0.535827
H1    H     H_    0.469938 0.198049 0.122857 0.144971
H2    H     H_    0.759981 0.908080 0.437332 0.163813
H3    H     H_    0.649946 0.880421 0.175061 0.404701
H4    H     H_    0.648340 0.093282 0.160001 0.320757
H5    H     H_    0.280215 0.384016 0.898551 0.328604
H6    H     H_    0.261410 0.232680 0.136469 0.402422
H7    H     H_    0.049514 0.867912 0.943112 0.400529
H8    H     H_    0.740490 0.730818 0.534279 0.287580
N1    N     N_R   0.499160 0.499140 0.142800 -0.152089
N2    N     N_R   0.499160 0.499180 0.857150 -0.217509
O1    O     O_R   0.500020 0.316790 0.614690 -0.555691
O2    O     O_3   0.709439 0.130604 0.222936 -0.633827
O3    O     O_3   0.311157 0.301693 0.865874 -0.628401
O4    O     O_3   0.311071 0.311388 0.136090 -0.664570
O5    O     O_3   0.110251 0.817615 0.889619 -0.583469
O6    O     O_3   0.747948 0.739096 0.632980 -0.667345
O7    O     O_R   0.500000 0.316760 0.385350 -0.600982
O8    O     O_R   0.316770 0.500020 0.614690 -0.554536
O9    O     O_R   0.316760 0.499980 0.385350 -0.551656
O10   O     O_R   0.500000 0.683240 0.614650 -0.470550
O11   O     O_R   0.499980 0.683210 0.385310 -0.576651
O12   O     O_R   0.683240 0.500020 0.614650 -0.590607
O13   O     O_R   0.683230 0.499980 0.385310 -0.579916
O14   O     O_3   0.724691 0.878765 0.232207 -0.674271
Zn1   Zn    Zn3+2 0.500010 0.500020 0.653130 1.151158
Zn2   Zn    Zn3+2 0.499990 0.499980 0.346870 1.119124

loop_
_geom_bond_atom_site_label_1
_geom_bond_atom_site_label_2
_ccdc_geom_bond_type
C12   C17   A    
C4    O9    A    
O13   Zn2   S    
C2    C28   A    
C23   C24   A    
C6    C7    S    
O1    Zn1   S    
C4    C22   S    
C9    C10   A    
H6    O4    S    
C19   C20   A    
C18   O5    S    
C28   F10   S    
C2    F2    S    
C10   N2    A    
O7    Zn2   S    
C6    O14   S    
C24   F9    S    
C1    O7    A    
O8    Zn1   S    
H7    O5    S    
C13   F6    S    
C13   C14   S    
C4    O8    A    
C11   N2    A    
C11   C13   S    
H5    O3    S    
O11   Zn2   S    
C20   C21   A    
C7    C26   S    
C15   O11   A    
H3    O14   S    
H4    O2    S    
O12   Zn1   S    
C23   F1    S    
C20   O6    S    
H8    O6    S    
C9    N1    A    
C10   F5    S    
C2    C3    A    
C19   F8    S    
C8    C11   A    
C26   C27   A    
C5    C6    S    
C15   O10   A    
C6    H2    S    
C8    N1    A    
C7    F3    S    
C16   O13   A    
C5    C26   A    
C12   C22   A    
C16   C25   S    
C3    C15   S    
C24   C25   A    
O9    Zn2   S    
C17   C18   A    
C18   C19   A    
C16   O12   A    
N1    Zn2   S    
C1    C27   S    
C21   C25   A    
C22   C23   A    
N2    Zn1   S    
C8    C14   S    
C17   F7    S    
C9    F4    S    
C3    C5    A    
C14   H1    S    
C13   O3    S    
C1    O1    A    
C12   C21   A    
C14   O4    S    
O10   Zn1   S    
C7    O2    S    
C27   C28   A    
