data_mof_unit_5384.cif
_audit_creation_date              2012-12-10T19:00:14-0500
_audit_creation_method            fapswitch 2.2
_symmetry_space_group_name_H-M    P1
_symmetry_Int_Tables_number       1
_space_group_crystal_system       triclinic
_cell_length_a                    9.611844
_cell_length_b                    10.852583
_cell_length_c                    13.590407
_cell_angle_alpha                 91.096257
_cell_angle_beta                  74.821971
_cell_angle_gamma                 90.609397
_cell_volume                      1367.93467972

loop_
_atom_site_label
_atom_site_type_symbol
_atom_type_description
_atom_site_fract_x
_atom_site_fract_y
_atom_site_fract_z
_atom_type_partial_charge
C1    C     C_R   0.503200 0.737203 0.494559 0.834483
C2    C     C_R   0.431296 0.535605 0.981039 0.042993
C3    C     C_R   0.476969 0.541483 0.873383 -0.039031
C4    C     C_R   0.537462 0.519574 0.034960 -0.008430
C5    C     C_R   0.677702 0.484617 0.979247 -0.006605
C6    C     C_R   0.723187 0.513262 0.876074 -0.341815
C7    C     C_R   0.623205 0.566492 0.830749 0.491996
C8    C     C_R   0.509121 0.531538 0.140872 -0.191471
C9    C     C_R   0.738760 0.439046 0.135800 -0.317919
C10   C     C_R   0.377155 0.521767 0.813703 -0.224971
C11   C     C_R   0.392412 0.935252 0.472453 -0.119279
C12   C     C_R   0.423554 0.507279 0.699727 0.802883
C13   C     C_R   0.510986 0.870595 0.484605 -0.256600
C14   C     C_R   0.633811 0.937730 0.494022 0.358400
C15   C     C_R   0.621184 0.064575 0.516929 0.395912
C16   C     C_R   0.497534 0.128533 0.507388 -0.202567
C17   C     C_R   0.384895 0.061922 0.484074 -0.120260
C18   C     C_3   0.227397 0.057029 0.540165 0.316150
C19   C     C_3   0.235481 0.917586 0.523308 0.320481
C20   C     C_R   0.959850 0.481861 0.411206 0.133592
C21   C     C_R   0.895077 0.522748 0.586089 -0.087222
C22   C     C_R   0.042611 0.526783 0.585717 -0.075846
C23   C     C_R   0.497767 0.262624 0.504676 0.837006
C24   C     C_R   0.106448 0.478822 0.412097 0.164195
C25   C     C_3   0.135688 0.365116 0.347140 0.218298
C26   C     C_3   0.980386 0.372272 0.339907 0.202765
C27   C     C_R   0.574926 0.499154 0.301679 0.821187
C28   C     C_R   0.770802 0.430865 0.029983 0.532918
C29   C     C_R   0.611114 0.493945 0.190976 -0.108286
C30   C     C_R   0.229350 0.507526 0.866129 0.487726
C31   C     C_R   0.183662 0.524851 0.971724 -0.194247
C32   C     C_R   0.282941 0.536838 0.029144 -0.269470
Cu1   Cu    Cu3+1 0.359330 0.500020 0.500010 0.981223
Cu2   Cu    Cu3+1 0.640670 0.499980 0.499990 1.017983
H1    H     H_    0.810318 0.397227 0.174412 0.157973
H2    H     H_    0.158276 0.107016 0.500058 0.113255
H3    H     H_    0.218535 0.865066 0.595027 0.121765
H4    H     H_    0.836953 0.513923 0.837242 0.204007
H5    H     H_    0.241069 0.539426 0.110841 0.198754
N1    N     N_R   0.852320 0.499070 0.499340 -0.155231
N2    N     N_R   0.148230 0.499110 0.499340 -0.199334
O1    O     O_R   0.381190 0.680360 0.500000 -0.579919
O2    O     O_R   0.618780 0.680320 0.499990 -0.539369
O3    O     O_R   0.323230 0.500000 0.650990 -0.566275
O4    O     O_R   0.560820 0.499960 0.650980 -0.578635
O5    O     O_R   0.381220 0.319680 0.500010 -0.591179
O6    O     O_R   0.618810 0.319640 0.500000 -0.492286
O7    O     O_R   0.439180 0.500040 0.349020 -0.555738
O8    O     O_R   0.676770 0.500000 0.349010 -0.590665
O9    O     O_3   0.731995 0.124964 0.546072 -0.514411
C33   C     C_3   0.686806 0.151427 0.652035 -0.285599
H6    H     H_    0.682206 0.066078 0.696660 0.113490
H7    H     H_    0.580566 0.198384 0.675614 0.144351
H8    H     H_    0.765870 0.215438 0.672343 0.175713
O10   O     O_3   0.206664 0.090604 0.643939 -0.591053
C34   C     C_3   0.059685 0.076895 0.695050 -0.409664
H9    H     H_    0.020350 0.981186 0.688894 0.156577
H10   H     H_    0.993435 0.143391 0.666264 0.184488
H11   H     H_    0.045996 0.095983 0.777303 0.176597
O11   O     O_3   0.144675 0.871746 0.462741 -0.587129
C35   C     C_3   0.198288 0.891662 0.357016 -0.262358
H12   H     H_    0.293778 0.832832 0.324311 0.168661
H13   H     H_    0.224173 0.990338 0.340251 0.121945
H14   H     H_    0.113528 0.864390 0.318863 0.190734
H15   H     H_    0.816398 0.535266 0.656534 0.188797
H16   H     H_    0.070466 0.549419 0.655667 0.194759
O12   O     O_3   0.237155 0.388888 0.253795 -0.590661
C36   C     C_3   0.275929 0.277549 0.198771 -0.351965
H17   H     H_    0.315828 0.208309 0.244112 0.150033
H18   H     H_    0.184600 0.240015 0.171443 0.157191
H19   H     H_    0.365170 0.296444 0.130334 0.203933
H20   H     H_    0.161031 0.285784 0.390352 0.112500
H21   H     H_    0.969856 0.399225 0.263812 0.089644
O13   O     O_3   0.895362 0.270529 0.383539 -0.510124
C37   C     C_3   0.915629 0.172329 0.311671 -0.233281
H22   H     H_    0.022057 0.128653 0.303426 0.136898
H23   H     H_    0.903269 0.201382 0.236319 0.110860
H24   H     H_    0.832445 0.100920 0.339587 0.212056
O14   O     O_3   0.885132 0.359882 0.977915 -0.584705
C38   C     C_3   0.836245 0.236511 0.978179 -0.409191
H25   H     H_    0.758955 0.225513 0.930246 0.167589
H26   H     H_    0.786636 0.203469 0.056799 0.164922
H27   H     H_    0.929379 0.175858 0.945440 0.170558
H28   H     H_    0.409645 0.572092 0.184976 0.186703
O15   O     O_3   0.126523 0.475619 0.815901 -0.596506
C39   C     C_3   0.128690 0.346392 0.800936 -0.208688
H29   H     H_    0.133159 0.295724 0.870508 0.169870
H30   H     H_    0.221076 0.316368 0.737754 0.188355
H31   H     H_    0.028699 0.319191 0.779866 0.191101
H32   H     H_    0.070130 0.520650 0.010443 0.192018
O16   O     O_3   0.659173 0.667228 0.767519 -0.588523
C40   C     C_3   0.725712 0.759458 0.815449 -0.400050
H33   H     H_    0.843797 0.743496 0.797257 0.175010
H34   H     H_    0.679430 0.765335 0.899752 0.177442
H35   H     H_    0.707909 0.851185 0.786832 0.161620
O17   O     O_3   0.767878 0.882040 0.471716 -0.560426
C41   C     C_3   0.806339 0.857768 0.562409 -0.143090
H36   H     H_    0.883125 0.779983 0.547859 0.210542
H37   H     H_    0.712079 0.829699 0.624470 0.160698
H38   H     H_    0.862218 0.938396 0.585773 0.178472

loop_
_geom_bond_atom_site_label_1
_geom_bond_atom_site_label_2
_ccdc_geom_bond_type
C27   O7    A    
O10   C34   S    
C24   N2    A    
C27   C29   S    
C25   O12   S    
C4    C8    A    
C41   H36   S    
O15   C39   S    
C11   C19   S    
Cu2   N1    S    
Cu1   O1    S    
C3    C7    A    
C30   C31   A    
C38   H25   S    
C39   H30   S    
C15   O9    S    
C22   N2    A    
C15   C16   A    
C26   H21   S    
C34   H9    S    
C2    C32   A    
C18   C19   S    
C32   H5    S    
C35   H13   S    
C28   O14   S    
C22   H16   S    
C19   H3    S    
C1    O2    A    
C20   C24   A    
C36   H17   S    
C6    H4    S    
C9    C29   A    
C23   O5    A    
C13   C14   A    
Cu1   O5    S    
C38   H27   S    
C14   O17   S    
C41   H37   S    
Cu1   Cu2   S    
C23   O6    A    
O13   C37   S    
C33   H6    S    
C24   C25   S    
C38   H26   S    
O16   C40   S    
C25   H20   S    
C39   H29   S    
C16   C17   A    
O9    C33   S    
C25   C26   S    
C40   H35   S    
O12   C36   S    
O11   C35   S    
C33   H7    S    
C35   H14   S    
C2    C4    A    
C37   H22   S    
C5    C28   A    
C10   C30   A    
C31   C32   A    
C31   H32   S    
C7    O16   S    
O17   C41   S    
C40   H34   S    
C17   C18   S    
Cu2   O4    S    
C30   O15   S    
C37   H23   S    
C10   C12   S    
C18   O10   S    
C16   C23   S    
C1    C13   S    
C8    C29   A    
C41   H38   S    
C11   C17   A    
Cu2   O8    S    
C21   H15   S    
C8    H28   S    
Cu1   O3    S    
Cu2   O2    S    
C12   O4    A    
C39   H31   S    
C6    C7    A    
C19   O11   S    
C34   H11   S    
C33   H8    S    
Cu1   N2    S    
C2    C3    A    
C12   O3    A    
C3    C10   A    
C11   C13   A    
C5    C6    A    
C21   N1    A    
C20   C26   S    
C36   H19   S    
C20   N1    A    
C40   H33   S    
C26   O13   S    
C34   H10   S    
C35   H12   S    
C37   H24   S    
O14   C38   S    
C1    O1    A    
C4    C5    A    
C36   H18   S    
C9    H1    S    
Cu1   O7    S    
C14   C15   A    
Cu2   O6    S    
C21   C22   A    
C18   H2    S    
C27   O8    A    
C9    C28   A    
