data_mof_unit_14754.cif
_audit_creation_date              2012-12-11T15:50:36-0500
_audit_creation_method            fapswitch 2.2
_symmetry_space_group_name_H-M    P1
_symmetry_Int_Tables_number       1
_space_group_crystal_system       triclinic
_cell_length_a                    19.203704
_cell_length_b                    11.213081
_cell_length_c                    18.632594
_cell_angle_alpha                 90.21502
_cell_angle_beta                  90.40919
_cell_angle_gamma                 89.921885
_cell_volume                      4012.07240373

loop_
_atom_site_label
_atom_site_type_symbol
_atom_type_description
_atom_site_fract_x
_atom_site_fract_y
_atom_site_fract_z
_atom_type_partial_charge
C1    C     C_R   0.270524 0.041995 0.852557 0.531174
C2    C     C_R   0.744463 0.578394 0.922102 0.009007
C3    C     C_R   0.207546 0.494943 0.360943 0.580774
C4    C     C_R   0.470194 0.822852 0.647892 0.526034
C5    C     C_R   0.533761 0.822511 0.354516 0.530490
C6    C     C_R   0.970218 0.322845 0.647907 0.525531
C7    C     C_R   0.033799 0.322506 0.354538 0.530844
C8    C     C_R   0.258112 0.632146 0.646301 0.548590
C9    C     C_R   0.738938 0.639336 0.356769 0.547837
C10   C     C_R   0.758112 0.132146 0.646298 0.547909
C11   C     C_R   0.238893 0.139480 0.356837 0.548350
C12   C     C_3   0.444016 0.885639 0.033804 -0.133962
C13   C     C_R   0.755493 0.077774 0.077791 0.008188
C14   C     C_3   0.490273 0.949089 0.977668 -0.106028
C15   C     C_3   0.009694 0.448907 0.023074 -0.105497
C16   C     C_3   0.055992 0.385512 0.966582 -0.134832
C17   C     C_3   0.442077 0.773824 0.985510 -0.121691
C18   C     C_3   0.556421 0.899643 0.015285 -0.110069
C19   C     C_3   0.943554 0.399931 0.985148 -0.109674
C20   C     C_3   0.057937 0.273496 0.014228 -0.123385
C21   C     C_3   0.489241 0.835529 0.930768 0.059798
C22   C     C_3   0.509550 0.834774 0.069450 0.058702
C23   C     C_3   0.990455 0.335167 0.930611 0.058992
C24   C     C_R   0.242543 0.077306 0.922005 0.020663
C25   C     C_3   0.010739 0.335107 0.069304 0.059705
C26   C     C_3   0.339490 0.376666 0.631755 -0.093710
C27   C     C_3   0.626413 0.433211 0.397734 -0.097999
C28   C     C_3   0.839489 0.876509 0.631589 -0.093586
C29   C     C_3   0.126477 0.933372 0.397896 -0.098024
C30   C     C_3   0.322258 0.670761 0.417251 -0.133137
C31   C     C_3   0.616996 0.612482 0.640838 -0.105892
C32   C     C_3   0.822203 0.170854 0.417245 -0.133253
C33   C     C_3   0.116749 0.111930 0.641238 -0.105616
C34   C     C_3   0.414403 0.479521 0.078051 -0.263752
C35   C     C_R   0.285022 0.488514 0.031865 0.019969
C36   C     C_3   0.428028 0.403805 0.145446 -0.306785
C37   C     C_3   0.481497 0.461609 0.195334 -0.417707
C38   C     C_3   0.586610 0.498062 0.914323 -0.250310
C39   C     C_3   0.564621 0.409307 0.855100 -0.316055
C40   C     C_3   0.513167 0.463799 0.801951 -0.415317
C41   C     C_3   0.913250 0.998948 0.085208 -0.250443
C42   C     C_3   0.935121 0.910280 0.144201 -0.313595
C43   C     C_3   0.985034 0.965383 0.198877 -0.409657
C44   C     C_3   0.085603 0.979411 0.921249 -0.263973
C45   C     C_3   0.072054 0.903777 0.853487 -0.309006
C46   C     C_R   0.713409 0.492311 0.966657 0.018038
C47   C     C_3   0.017723 0.960908 0.804519 -0.425490
C48   C     C_R   0.786498 0.991646 0.032704 0.014528
C49   C     C_R   0.214921 0.988912 0.967545 0.023550
C50   C     C_R   0.286715 0.506189 0.957656 -0.027112
C51   C     C_R   0.711699 0.508123 0.040975 -0.024698
C52   C     C_R   0.788245 0.008080 0.958406 -0.024910
C53   C     C_R   0.729113 0.041679 0.147353 0.539615
C54   C     C_R   0.213219 0.006179 0.041805 -0.027024
C55   C     C_R   0.253851 0.707372 0.976812 -0.168228
C56   C     C_R   0.755522 0.704023 0.025243 -0.157150
C57   C     C_R   0.745468 0.204557 0.975523 -0.157145
C58   C     C_R   0.246433 0.207257 0.023892 -0.167756
C59   C     C_R   0.246380 0.689939 0.050377 -0.175418
C60   C     C_R   0.762484 0.687612 0.951700 -0.177683
C61   C     C_R   0.738329 0.187728 0.048973 -0.176755
C62   C     C_R   0.253849 0.190107 0.950240 -0.177033
C63   C     C_3   0.355747 0.427737 0.031280 -0.128079
C64   C     C_R   0.770845 0.542014 0.852533 0.525775
C65   C     C_3   0.640683 0.439956 0.965098 -0.128218
C66   C     C_3   0.859644 0.940450 0.033849 -0.129366
C67   C     C_3   0.144421 0.927761 0.967686 -0.127685
C68   C     C_3   0.359308 0.457661 0.951995 -0.269810
C69   C     C_3   0.637473 0.468528 0.044734 -0.269668
C70   C     C_3   0.862718 0.969628 0.954503 -0.269091
C71   C     C_3   0.140754 0.957345 0.047191 -0.270233
C72   C     C_R   0.261312 0.612425 0.929259 0.017451
C73   C     C_R   0.740515 0.610589 0.071240 0.023930
C74   C     C_R   0.759446 0.110907 0.928821 0.023975
C75   C     C_R   0.229452 0.541716 0.147364 0.545163
C76   C     C_R   0.238599 0.112190 0.070797 0.017430
C77   C     C_R   0.518935 0.826149 0.430139 -0.007964
C78   C     C_R   0.503999 0.828030 0.578919 -0.016810
C79   C     C_R   0.019038 0.326139 0.430182 -0.008016
C80   C     C_R   0.004091 0.327982 0.578964 -0.017001
C81   C     C_R   0.468859 0.822470 0.855545 0.542572
C82   C     C_R   0.530699 0.822274 0.144631 0.545284
C83   C     C_R   0.969328 0.322444 0.855380 0.541844
C84   C     C_R   0.031148 0.322293 0.144476 0.545997
C85   C     C_R   0.525639 0.720562 0.468943 0.099062
C86   C     C_3   0.554761 0.787602 0.967025 -0.138854
C87   C     C_R   0.512169 0.721886 0.540745 0.005958
C88   C     C_R   0.025667 0.220526 0.468966 0.099200
C89   C     C_R   0.012233 0.221826 0.540783 0.006383
C90   C     C_R   0.512331 0.935482 0.542304 -0.162258
C91   C     C_R   0.513614 0.933800 0.467213 -0.169354
C92   C     C_R   0.012530 0.435427 0.542374 -0.162338
C93   C     C_R   0.013823 0.433773 0.467282 -0.169342
C94   C     C_3   0.483354 0.610323 0.457872 -0.193172
C95   C     C_3   0.464754 0.617012 0.535801 -0.188617
C96   C     C_3   0.983304 0.110397 0.457860 -0.193137
C97   C     C_3   0.507875 0.724659 0.021673 -0.124424
C98   C     C_3   0.964763 0.117025 0.535810 -0.188371
C99   C     C_R   0.214069 0.502527 0.439424 -0.040651
C100  C     C_R   0.753750 0.593830 0.578489 -0.053794
C101  C     C_R   0.714056 0.002516 0.439420 -0.040828
C102  C     C_R   0.253594 0.094209 0.578649 -0.053744
C103  C     C_R   0.159210 0.544015 0.481460 -0.029808
C104  C     C_R   0.807801 0.640828 0.537695 -0.029778
C105  C     C_R   0.659183 0.043920 0.481472 -0.029783
C106  C     C_R   0.307619 0.141358 0.537858 -0.029610
C107  C     C_R   0.171440 0.575288 0.553137 -0.037039
C108  C     C_3   0.992152 0.224810 0.977766 -0.124717
C109  C     C_R   0.802814 0.646672 0.465342 0.001330
C110  C     C_R   0.671418 0.075197 0.553153 -0.037004
C111  C     C_R   0.302612 0.147334 0.465512 0.001245
C112  C     C_R   0.287747 0.494825 0.545578 0.250495
C113  C     C_R   0.687051 0.564164 0.470356 0.267437
C114  C     C_R   0.787749 0.994875 0.545553 0.250443
C115  C     C_R   0.186892 0.064639 0.470517 0.267570
C116  C     C_R   0.280806 0.501108 0.470741 0.303518
C117  C     C_R   0.689448 0.568084 0.545665 0.265344
C118  C     C_R   0.780796 0.001161 0.470725 0.303562
C119  C     C_3   0.945226 0.287685 0.032757 -0.138820
C120  C     C_R   0.189266 0.068487 0.545848 0.265254
C121  C     C_3   0.123485 0.660914 0.468987 -0.264629
C122  C     C_3   0.881967 0.600829 0.532668 -0.244559
C123  C     C_3   0.623408 0.160781 0.469021 -0.264543
C124  C     C_3   0.381809 0.101410 0.532743 -0.244550
C125  C     C_3   0.133302 0.691245 0.546207 -0.232304
C126  C     C_3   0.876130 0.611970 0.452584 -0.267459
C127  C     C_3   0.633225 0.191101 0.546244 -0.232326
C128  C     C_3   0.375947 0.112802 0.452684 -0.267284
C129  C     C_R   0.262546 0.640856 0.853120 0.536863
C130  C     C_R   0.257426 0.576867 0.077956 0.019909
C131  C     C_R   0.737850 0.639812 0.147244 0.540131
C132  C     C_R   0.762210 0.140222 0.852857 0.537569
C133  C     C_R   0.237518 0.140451 0.146978 0.539456
C134  C     C_R   0.237192 0.556848 0.585403 -0.043982
C135  C     C_R   0.745228 0.602431 0.430056 -0.041948
C136  C     C_R   0.737189 0.056837 0.585399 -0.043961
C137  C     C_R   0.245066 0.102974 0.430221 -0.041866
C138  C     C_R   0.272274 0.045131 0.646681 0.536056
C139  C     C_R   0.707541 0.994937 0.360941 0.580311
C140  C     C_R   0.772314 0.545039 0.646629 0.535775
Cr1   Cr    Cr6+3 0.229640 0.835880 0.747370 0.991616
Cr2   Cr    Cr6+3 0.614230 0.677220 0.250660 0.982506
Cr3   Cr    Cr6+3 0.885770 0.177220 0.749340 0.975696
Cr4   Cr    Cr6+3 0.114230 0.177220 0.250660 0.978842
Cr5   Cr    Cr6+3 0.770360 0.835880 0.252630 1.005603
Cr6   Cr    Cr6+3 0.729640 0.335880 0.747370 0.994782
Cr7   Cr    Cr6+3 0.270360 0.335880 0.252630 1.002604
Cr8   Cr    Cr6+3 0.387390 0.989720 0.750850 0.989641
Cr9   Cr    Cr6+3 0.612610 0.989720 0.249150 0.993010
Cr10  Cr    Cr6+3 0.887390 0.489720 0.750850 0.990576
Cr11  Cr    Cr6+3 0.112610 0.489720 0.249150 0.991988
Cr12  Cr    Cr6+3 0.385770 0.677220 0.749340 0.972468
H1    H     H_    0.394752 0.722193 0.972338 0.127229
H2    H     H_    0.910144 0.143697 0.545512 0.201614
H3    H     H_    0.961408 0.045872 0.223734 0.181952
H4    H     H_    0.996360 0.899815 0.241942 0.111415
H5    H     H_    0.888462 0.878348 0.173088 0.212050
H6    H     H_    0.960995 0.831682 0.119331 0.146071
H7    H     H_    0.960597 0.023997 0.055368 0.144621
H8    H     H_    0.891148 0.079191 0.111287 0.162553
H9    H     H_    0.967953 0.973494 0.833482 0.165747
H10   H     H_    0.037004 0.048164 0.785116 0.169208
H11   H     H_    0.008049 0.902383 0.757285 0.121653
H12   H     H_    0.120093 0.891221 0.822356 0.221584
H13   H     H_    0.509117 0.525417 0.446088 0.198541
H14   H     H_    0.053263 0.813923 0.869347 0.152752
H15   H     H_    0.037595 0.971464 0.953362 0.135012
H16   H     H_    0.096128 0.073945 0.907324 0.165096
H17   H     H_    0.410121 0.643627 0.545467 0.201764
H18   H     H_    0.444860 0.627517 0.416703 0.167935
H19   H     H_    0.483672 0.539011 0.566953 0.194893
H20   H     H_    0.944799 0.127792 0.416736 0.167557
H21   H     H_    0.983674 0.038974 0.566920 0.194931
H22   H     H_    0.068378 0.661139 0.452858 0.124280
H23   H     H_    0.886747 0.506793 0.550313 0.162654
H24   H     H_    0.568302 0.160921 0.452897 0.124384
H25   H     H_    0.603638 0.952245 0.029181 0.129020
H26   H     H_    0.386619 0.007312 0.550262 0.162644
H27   H     H_    0.155990 0.716034 0.434090 0.132190
H28   H     H_    0.919590 0.664781 0.556675 0.139106
H29   H     H_    0.655887 0.215968 0.434131 0.132206
H30   H     H_    0.419466 0.165258 0.556787 0.139102
H31   H     H_    0.166111 0.772331 0.552538 0.190919
H32   H     H_    0.907315 0.686632 0.430495 0.161007
H33   H     H_    0.665995 0.272231 0.552579 0.190873
H34   H     H_    0.407082 0.187593 0.430674 0.161212
H35   H     H_    0.083981 0.692507 0.577018 0.141008
H36   H     H_    0.896355 0.452836 0.971544 0.129565
H37   H     H_    0.880608 0.525568 0.423427 0.118225
H38   H     H_    0.583910 0.192281 0.577065 0.140994
H39   H     H_    0.380473 0.026502 0.423425 0.118221
H40   H     H_    0.398672 0.924639 0.062168 0.112250
H41   H     H_    0.483812 0.041708 0.957821 0.122659
H42   H     H_    0.016144 0.541423 0.043467 0.122883
H43   H     H_    0.101322 0.424511 0.938473 0.111094
H44   H     H_    0.602042 0.753913 0.940145 0.106861
H45   H     H_    0.512622 0.635744 0.043420 0.104659
H46   H     H_    0.987479 0.135879 0.955654 0.105893
H47   H     H_    0.105233 0.221492 0.027079 0.126827
H48   H     H_    0.897957 0.253961 0.059381 0.108659
H49   H     H_    0.258736 0.794370 0.955458 0.136816
H50   H     H_    0.756700 0.790191 0.048074 0.140597
H51   H     H_    0.745461 0.291068 0.953487 0.139804
H52   H     H_    0.242135 0.294169 0.045947 0.137054
H53   H     H_    0.234663 0.763515 0.085780 0.122251
H54   H     H_    0.779900 0.759354 0.917870 0.123733
H55   H     H_    0.721668 0.259778 0.083373 0.125705
H56   H     H_    0.265851 0.263631 0.915297 0.119623
H57   H     H_    0.861842 0.842309 0.039384 0.149736
H58   H     H_    0.508699 0.019543 0.570483 0.129353
H59   H     H_    0.146418 0.829969 0.960526 0.159239
H60   H     H_    0.354152 0.329876 0.037742 0.158291
H61   H     H_    0.639389 0.341868 0.958628 0.151363
H62   H     H_    0.398029 0.527316 0.938596 0.146909
H63   H     H_    0.604197 0.543805 0.059805 0.154489
H64   H     H_    0.895459 0.045575 0.940078 0.155635
H65   H     H_    0.101830 0.026773 0.061086 0.146597
H66   H     H_    0.362780 0.377864 0.916824 0.118811
H67   H     H_    0.630273 0.388840 0.079003 0.115665
H68   H     H_    0.870451 0.890357 0.919610 0.113394
H69   H     H_    0.507211 0.014257 0.437134 0.129956
H70   H     H_    0.137499 0.877349 0.081835 0.121019
H71   H     H_    0.288902 0.328394 0.628220 0.097850
H72   H     H_    0.343272 0.420993 0.684762 0.140307
H73   H     H_    0.381981 0.310128 0.631404 0.138527
H74   H     H_    0.679301 0.393357 0.391715 0.078734
H75   H     H_    0.605054 0.449478 0.343157 0.148911
H76   H     H_    0.589445 0.371024 0.422763 0.112777
H77   H     H_    0.788990 0.828014 0.627858 0.097894
H78   H     H_    0.843038 0.920723 0.684643 0.140550
H79   H     H_    0.882083 0.810155 0.631261 0.138751
H80   H     H_    0.008939 0.519483 0.570565 0.129436
H81   H     H_    0.179403 0.893588 0.392066 0.078665
H82   H     H_    0.105270 0.949548 0.343246 0.148586
H83   H     H_    0.089458 0.871155 0.422828 0.112910
H84   H     H_    0.338849 0.727209 0.463271 0.090629
H85   H     H_    0.267873 0.694501 0.403996 0.112213
H86   H     H_    0.351550 0.697948 0.368899 0.128157
H87   H     H_    0.625453 0.707202 0.625403 0.097487
H88   H     H_    0.646194 0.593979 0.690782 0.126004
H89   H     H_    0.562255 0.600194 0.656194 0.152968
H90   H     H_    0.838869 0.227304 0.463238 0.090654
H91   H     H_    0.007484 0.514247 0.437217 0.130122
H92   H     H_    0.767795 0.194598 0.404089 0.112189
H93   H     H_    0.851429 0.198027 0.368844 0.127796
H94   H     H_    0.062106 0.098882 0.656894 0.153534
H95   H     H_    0.124823 0.206797 0.625940 0.097791
H96   H     H_    0.146225 0.093603 0.691026 0.126007
H97   H     H_    0.531204 0.476278 0.166695 0.164193
H98   H     H_    0.461150 0.547812 0.215948 0.184394
H99   H     H_    0.491773 0.402222 0.241795 0.116132
H100  H     H_    0.379823 0.389941 0.176006 0.223881
H101  H     H_    0.447690 0.314444 0.129113 0.150837
H102  H     H_    0.008992 0.025449 0.445983 0.198524
H103  H     H_    0.462474 0.471674 0.045995 0.133838
H104  H     H_    0.403714 0.574069 0.092365 0.167800
H105  H     H_    0.463412 0.484801 0.829066 0.174273
H106  H     H_    0.535312 0.545931 0.778312 0.166224
H107  H     H_    0.502287 0.399213 0.757966 0.117751
H108  H     H_    0.611092 0.379036 0.825033 0.210106
H109  H     H_    0.539999 0.329785 0.879772 0.147896
H110  H     H_    0.539369 0.522872 0.944547 0.145849
H111  H     H_    0.608333 0.578342 0.888415 0.158081
H112  H     H_    0.034837 0.988793 0.172721 0.174427
O1    O     O_R   0.214300 0.709080 0.827500 -0.536659
O2    O     O_R   0.543340 0.717710 0.330180 -0.508951
O3    O     O_R   0.956660 0.217710 0.669820 -0.540453
O4    O     O_R   0.043340 0.217710 0.330180 -0.509748
O5    O     O_R   0.320590 0.625770 0.672930 -0.480951
O6    O     O_R   0.679410 0.625770 0.327070 -0.474986
O7    O     O_R   0.820590 0.125770 0.672930 -0.481168
O8    O     O_R   0.179410 0.125770 0.327070 -0.474927
O9    O     O_3   0.334270 0.834280 0.749190 -0.253347
O10   O     O_3   0.665730 0.834280 0.250810 -0.285947
O11   O     O_3   0.834270 0.334280 0.749190 -0.253507
O12   O     O_R   0.785700 0.709080 0.172500 -0.539354
O13   O     O_3   0.165730 0.334280 0.250810 -0.285824
O14   O     O_R   0.236190 0.958390 0.823150 -0.528970
O15   O     O_R   0.763810 0.958390 0.176850 -0.515753
O16   O     O_R   0.736190 0.458390 0.823150 -0.522512
O17   O     O_R   0.263810 0.458390 0.176850 -0.522066
O18   O     O_R   0.332090 0.075280 0.831290 -0.518767
O19   O     O_R   0.667910 0.075280 0.168710 -0.517353
O20   O     O_R   0.832090 0.575280 0.831290 -0.521397
O21   O     O_R   0.167910 0.575280 0.168710 -0.514840
O22   O     O_R   0.446280 0.918040 0.826620 -0.501585
O23   O     O_R   0.714300 0.209080 0.827500 -0.537530
O24   O     O_R   0.553720 0.918040 0.173380 -0.501297
O25   O     O_R   0.946280 0.418040 0.826620 -0.500289
O26   O     O_R   0.053720 0.418040 0.173380 -0.502560
O27   O     O_R   0.457080 0.716270 0.831760 -0.546257
O28   O     O_R   0.542920 0.716270 0.168240 -0.546616
O29   O     O_R   0.957080 0.216270 0.831760 -0.547859
O30   O     O_R   0.042920 0.216270 0.168240 -0.545384
O31   O     O_R   0.320980 0.624440 0.823040 -0.517354
O32   O     O_R   0.679020 0.624440 0.176960 -0.510811
O33   O     O_R   0.820980 0.124440 0.823040 -0.514129
O34   O     O_R   0.285700 0.209080 0.172500 -0.538287
O35   O     O_R   0.179020 0.124440 0.176960 -0.514003
O36   O     O_R   0.213880 0.710510 0.665560 -0.522557
O37   O     O_R   0.786120 0.710510 0.334440 -0.520922
O38   O     O_R   0.713880 0.210510 0.665560 -0.522448
O39   O     O_R   0.286120 0.210510 0.334440 -0.521145
O40   O     O_R   0.235800 0.959720 0.673040 -0.478581
O41   O     O_R   0.764200 0.959720 0.326960 -0.453501
O42   O     O_R   0.735800 0.459720 0.673040 -0.477598
O43   O     O_R   0.264200 0.459720 0.326960 -0.454436
O44   O     O_R   0.331670 0.076720 0.669350 -0.543880
O45   O     O_R   0.445900 0.919370 0.676500 -0.508136
O46   O     O_R   0.668330 0.076720 0.330650 -0.541773
O47   O     O_R   0.831670 0.576720 0.669350 -0.543722
O48   O     O_R   0.168330 0.576720 0.330650 -0.542011
O49   O     O_3   0.350684 0.458362 0.575109 -0.566473
O50   O     O_3   0.624514 0.540310 0.437489 -0.544311
O51   O     O_3   0.850689 0.958423 0.575066 -0.566599
O52   O     O_3   0.124412 0.040508 0.437614 -0.544321
O53   O     O_3   0.335341 0.547091 0.431773 -0.547052
O54   O     O_3   0.631880 0.530962 0.584507 -0.547655
O55   O     O_3   0.835314 0.047187 0.431751 -0.547037
O56   O     O_R   0.554100 0.919370 0.323500 -0.522188
O57   O     O_3   0.131760 0.030895 0.584670 -0.547882
O58   O     O_R   0.945900 0.419370 0.676500 -0.508360
O59   O     O_R   0.054100 0.419370 0.323500 -0.522010
O60   O     O_R   0.456660 0.717710 0.669820 -0.540990

loop_
_geom_bond_atom_site_label_1
_geom_bond_atom_site_label_2
_ccdc_geom_bond_type
C99   C103  A    
C9    O6    A    
C55   C59   A    
C11   O8    A    
C29   O52   S    
C63   H60   S    
C105  C110  A    
C17   H1    S    
C123  H24   S    
C102  C120  A    
C6    O3    A    
C22   C82   S    
C14   C21   S    
C38   H110  S    
C43   H112  S    
C92   H80   S    
Cr2   O32   S    
C100  C104  A    
C105  C123  S    
C44   H16   S    
C50   C72   A    
Cr1   O36   S    
C18   H25   S    
Cr4   O30   S    
C27   O50   S    
C67   H59   S    
C49   C54   A    
C58   H52   S    
Cr8   O22   S    
C25   C119  S    
C94   H13   S    
C62   H56   S    
Cr7   O13   S    
C45   C47   S    
C12   H40   S    
Cr7   O39   S    
C127  H38   S    
C7    O59   A    
C119  H48   S    
C46   C65   S    
C39   H109  S    
C99   C116  A    
C40   H106  S    
Cr9   O56   S    
C37   H99   S    
C17   C21   S    
C80   C92   A    
C19   C23   S    
Cr2   O6    S    
C65   H61   S    
C19   H36   S    
C6    C80   S    
Cr7   O34   S    
C16   C20   S    
C33   O57   S    
C33   H94   S    
C29   H81   S    
C10   O7    A    
C26   H72   S    
C42   H5    S    
C5    C77   S    
C43   H4    S    
C103  C121  S    
C28   H78   S    
C111  C137  A    
C7    C79   S    
C112  O49   S    
C21   C86   S    
C77   C91   A    
C56   C73   A    
C32   H90   S    
C112  C134  A    
C10   O38   A    
C76   C133  S    
C57   C61   A    
Cr9   O10   S    
C96   H102  S    
C123  H29   S    
C16   H43   S    
C94   H18   S    
C27   H75   S    
C66   C70   S    
C139  O46   A    
C127  H33   S    
C39   H108  S    
C48   C52   A    
C84   O26   A    
C88   C89   A    
C117  O54   S    
C106  C124  S    
C114  C136  A    
C35   C63   S    
C100  C117  A    
C51   C69   S    
C20   C108  S    
C78   C87   A    
C140  O42   A    
C31   H88   S    
C98   H2    S    
C109  C135  A    
C3    O48   A    
C110  C136  A    
Cr4   O35   S    
Cr1   O9    S    
C83   O25   A    
C58   C76   A    
Cr3   O7    S    
C101  C118  A    
C36   C37   S    
Cr4   O8    S    
C107  C134  A    
C52   C74   A    
C38   C39   S    
C15   C25   S    
C140  O47   A    
C104  C122  S    
C129  O31   A    
C26   H73   S    
C55   H49   S    
C12   C22   S    
C33   H96   S    
C34   H104  S    
C28   O51   S    
C86   C97   S    
C29   H83   S    
Cr6   O23   S    
C86   H44   S    
C15   H42   S    
C8    O36   A    
C87   C95   S    
C133  O34   A    
Cr4   O13   S    
C45   H14   S    
C138  O44   A    
C77   C85   A    
C32   H92   S    
Cr5   O15   S    
C30   H86   S    
Cr6   O16   S    
Cr11  O21   S    
Cr5   O37   S    
C106  C111  A    
Cr2   O28   S    
Cr9   O46   S    
C8    C134  S    
C97   H45   S    
C107  C125  S    
Cr11  O59   S    
C39   C40   S    
C98   H21   S    
Cr3   O29   S    
C46   C51   A    
C121  C125  S    
C41   H8    S    
C64   O20   A    
C123  C127  S    
C38   C65   S    
Cr12  O5    S    
Cr9   O19   S    
C115  O52   S    
C35   C130  A    
C113  C117  A    
C9    C135  S    
C16   C23   S    
C113  C135  A    
C112  C116  A    
C82   O24   A    
Cr5   O41   S    
C63   C68   S    
C24   C62   A    
C18   C22   S    
Cr2   O2    S    
C21   C81   S    
C103  C107  A    
C41   C66   S    
C32   H93   S    
C125  H35   S    
Cr11  O26   S    
Cr5   O10   S    
C131  O12   A    
C38   H111  S    
C60   H54   S    
C95   H19   S    
C64   O16   A    
C131  O32   A    
C34   C36   S    
C138  O40   A    
C3    C99   S    
C109  C126  S    
C1    C24   S    
C111  C128  S    
C44   C67   S    
C30   H84   S    
C17   C97   S    
Cr8   O45   S    
C58   C62   A    
C88   C96   S    
C41   C42   S    
C72   C129  S    
C121  H27   S    
C42   H6    S    
C78   C90   A    
C15   C19   S    
C18   C86   S    
C23   C83   S    
C128  H34   S    
Cr1   O14   S    
Cr12  O9    S    
C2    C60   A    
C132  O23   A    
C84   O30   A    
C20   C25   S    
C37   H98   S    
C80   C89   A    
C54   C71   S    
C32   O55   S    
C12   C17   S    
C68   H62   S    
C75   C130  S    
C124  C128  S    
C47   H11   S    
C59   H53   S    
C19   C119  S    
C5    O2    A    
C71   H70   S    
Cr3   O11   S    
C108  C119  S    
Cr4   O4    S    
C4    O45   A    
C43   H3    S    
C79   C88   A    
C53   O19   A    
C13   C53   S    
C101  C139  S    
C26   O49   S    
C6    O58   A    
Cr12  O31   S    
Cr10  O11   S    
Cr6   O11   S    
C93   H91   S    
C56   C60   A    
C44   H15   S    
C121  H22   S    
C57   H51   S    
Cr10  O20   S    
C81   O27   A    
C122  H28   S    
C82   O28   A    
C61   H55   S    
Cr6   O38   S    
C14   H41   S    
Cr9   O24   S    
C42   C43   S    
C129  O1    A    
C44   C45   S    
Cr3   O33   S    
C53   O15   A    
C31   H87   S    
C69   H67   S    
C31   H89   S    
C40   H105  S    
C118  O55   S    
C89   C98   S    
C71   H65   S    
C11   C137  S    
C70   H64   S    
C1    O14   A    
C31   O54   S    
C90   C91   A    
C104  C109  A    
C65   C69   S    
C23   C108  S    
C92   C93   A    
C33   H95   S    
C67   C71   S    
C108  H46   S    
C94   C95   S    
C29   H82   S    
C47   H9    S    
Cr6   O42   S    
C124  H30   S    
C26   H71   S    
Cr8   O9    S    
C50   C68   S    
C28   H77   S    
C122  H23   S    
C5    O56   A    
Cr1   O40   S    
C73   C131  S    
C59   C130  A    
Cr10  O47   S    
C74   C132  S    
C125  H31   S    
C14   C18   S    
C126  H32   S    
C69   H63   S    
Cr8   O44   S    
C2    C46   A    
C4    C78   S    
Cr8   O18   S    
C113  O50   S    
C45   H12   S    
C10   C136  S    
C79   C93   A    
C1    O18   A    
Cr7   O17   S    
C27   H76   S    
C56   H50   S    
Cr12  O60   S    
C15   C16   S    
Cr7   O43   S    
C102  C138  S    
C100  C140  S    
C41   H7    S    
C120  O57   S    
C25   C84   S    
C91   H69   S    
Cr2   O10   S    
C124  H26   S    
C55   C72   A    
C110  C127  S    
Cr11  O48   S    
C22   C97   S    
C47   H10   S    
C75   O21   A    
C40   H107  S    
C2    C64   S    
C85   C87   A    
C101  C105  A    
C132  O33   A    
C115  C137  A    
C30   O53   S    
C90   H58   S    
Cr10  O58   S    
C70   H68   S    
C96   C98   S    
C34   H103  S    
Cr1   O1    S    
C57   C74   A    
C122  C126  S    
C126  H37   S    
C68   H66   S    
C20   H47   S    
C9    O37   A    
C8    O5    A    
C85   C94   S    
C11   O39   A    
C35   C50   A    
C133  O35   A    
C66   H57   S    
C95   H17   S    
C28   H79   S    
C114  C118  A    
C54   C76   A    
C12   C14   S    
Cr12  O27   S    
C30   H85   S    
C24   C49   A    
C49   C67   S    
C114  O51   S    
C51   C73   A    
C13   C48   A    
C116  O53   S    
C27   H74   S    
C139  O41   A    
C75   O17   A    
C36   H101  S    
C128  H39   S    
C48   C66   S    
Cr11  O13   S    
C83   O29   A    
C37   H97   S    
Cr5   O12   S    
C36   H100  S    
C34   C63   S    
C102  C106  A    
Cr3   O3    S    
C7    O4    A    
C52   C70   S    
C13   C61   A    
C115  C120  A    
C96   H20   S    
C4    O60   A    
Cr10  O25   S    
C3    O43   A    
C81   O22   A    
