data_mof_unit_67895.cif
_audit_creation_date              2013-03-05T15:52:21-0500
_audit_creation_method            fapswitch 2.2
_symmetry_space_group_name_H-M    P1
_symmetry_Int_Tables_number       1
_space_group_crystal_system       triclinic
_cell_length_a                    15.623253
_cell_length_b                    14.899271
_cell_length_c                    10.092921
_cell_angle_alpha                 91.129032
_cell_angle_beta                  89.72577
_cell_angle_gamma                 89.512872
_cell_volume                      2348.81065242

loop_
_atom_site_label
_atom_site_type_symbol
_atom_site_description
_atom_site_fract_x
_atom_site_fract_y
_atom_site_fract_z
_atom_type_partial_charge
O1    O     O_R   0.408390 0.908380 0.614690 -0.549026
O2    O     O_R   0.408390 0.091620 0.614690 -0.612237
O3    O     O_R   0.908390 0.408380 0.614690 -0.549052
O4    O     O_R   0.908390 0.591620 0.614690 -0.612255
O5    O     O_R   0.408370 0.908380 0.385360 -0.593025
O6    O     O_R   0.408370 0.091620 0.385360 -0.607899
O7    O     O_R   0.908370 0.408380 0.385360 -0.593230
O8    O     O_R   0.908370 0.591620 0.385360 -0.607770
C1    C     C_R   0.390258 0.869852 0.496815 0.998398
C2    C     C_R   0.388770 0.128367 0.503499 0.942918
C3    C     C_R   0.890254 0.369854 0.496812 0.998261
C4    C     C_R   0.888763 0.628361 0.503503 0.943128
Zn1   Zn    Zn3+2 0.500010 0.000000 0.653130 1.081830
Zn2   Zn    Zn3+2 0.000010 0.500000 0.653130 1.081686
Zn3   Zn    Zn3+2 0.499980 1.000000 0.346870 1.087664
Zn4   Zn    Zn3+2 0.999980 0.500000 0.346870 1.087561
O9    O     O_R   0.591620 0.091610 0.614640 -0.604984
O10   O     O_R   0.591620 0.908390 0.614640 -0.601454
O11   O     O_R   0.091620 0.591610 0.614640 -0.605200
O12   O     O_R   0.091620 0.408390 0.614640 -0.601418
O13   O     O_R   0.591610 0.091610 0.385310 -0.603709
O14   O     O_R   0.591610 0.908390 0.385310 -0.593018
O15   O     O_R   0.091610 0.591610 0.385310 -0.603770
O16   O     O_R   0.091610 0.408390 0.385310 -0.593032
C5    C     C_R   0.617544 0.124488 0.501237 0.895049
C6    C     C_R   0.622768 0.883066 0.499183 0.962426
C7    C     C_R   0.117545 0.624482 0.501223 0.895314
C8    C     C_R   0.122760 0.383058 0.499183 0.962482
C9    C     C_R   0.303288 0.208344 0.759826 0.205138
C10   C     C_R   0.383509 0.652346 0.615138 0.263915
C11   C     C_R   0.803251 0.708289 0.759854 0.204990
C12   C     C_R   0.883517 0.152379 0.615136 0.264036
C13   C     C_R   0.241646 0.202622 0.858342 -0.302443
C14   C     C_R   0.370704 0.611560 0.736733 -0.220258
C15   C     C_R   0.741592 0.702573 0.858346 -0.302246
C16   C     C_R   0.870758 0.111628 0.736758 -0.220424
H1    H     H_    0.260916 0.193658 0.958838 0.232611
H2    H     H_    0.415794 0.561713 0.770881 0.244874
H3    H     H_    0.760849 0.693573 0.958843 0.232643
H4    H     H_    0.915845 0.061749 0.770815 0.244847
C17   C     C_R   0.655386 0.709345 0.827932 0.224139
C18   C     C_R   0.798451 0.136395 0.812279 0.228021
C19   C     C_R   0.155436 0.209332 0.827937 0.223996
C20   C     C_R   0.298357 0.636309 0.812149 0.228279
C21   C     C_R   0.632496 0.737300 0.699623 0.275396
C22   C     C_R   0.728565 0.176690 0.743323 0.250978
C23   C     C_R   0.132517 0.237286 0.699642 0.275529
C24   C     C_R   0.228526 0.676651 0.743221 0.250870
C25   C     C_R   0.698423 0.755215 0.604333 -0.066560
C26   C     C_R   0.743466 0.203073 0.611714 -0.147673
C27   C     C_R   0.198424 0.255205 0.604329 -0.066573
C28   C     C_R   0.243450 0.703071 0.611656 -0.147578
C29   C     C_R   0.278638 0.218472 0.627091 -0.071686
C30   C     C_R   0.327831 0.724034 0.583315 -0.010938
C31   C     C_R   0.778633 0.718474 0.627111 -0.071628
C32   C     C_R   0.827836 0.224055 0.583337 -0.011043
C33   C     C_R   0.335279 0.209916 0.519456 -0.198207
C34   C     C_R   0.342330 0.783027 0.480382 -0.153775
C35   C     C_R   0.835287 0.709921 0.519478 -0.198143
C36   C     C_R   0.842329 0.283029 0.480381 -0.153709
C37   C     C_R   0.340601 0.282466 0.434684 0.321894
C38   C     C_R   0.291128 0.772447 0.368365 0.186352
C39   C     C_R   0.840614 0.782461 0.434683 0.321822
C40   C     C_R   0.791115 0.272441 0.368377 0.186181
C41   C     C_R   0.767192 0.837703 0.422258 0.080810
C42   C     C_R   0.709975 0.233867 0.381189 0.155376
C43   C     C_R   0.267179 0.337703 0.422263 0.080913
C44   C     C_R   0.210009 0.733810 0.381098 0.155240
C45   C     C_R   0.693233 0.818821 0.500061 -0.132632
C46   C     C_R   0.685739 0.194273 0.502705 -0.142897
C47   C     C_R   0.193222 0.318812 0.500059 -0.132710
C48   C     C_R   0.185748 0.694249 0.502634 -0.142947
H5    H     H_    0.625107 0.952885 0.123195 0.180728
H6    H     H_    0.125143 0.452998 0.123194 0.180757
C49   C     C_R   0.361904 0.071786 0.135928 0.207025
C50   C     C_R   0.861853 0.571650 0.135959 0.207097
C51   C     C_R   0.281052 0.039657 0.112927 0.081177
C52   C     C_R   0.781027 0.539468 0.112931 0.080989
C53   C     C_R   0.266154 0.997123 0.991554 0.174760
C54   C     C_R   0.766142 0.497013 0.991510 0.174871
C55   C     C_R   0.331427 0.996505 0.890864 0.060097
C56   C     C_R   0.831419 0.496435 0.890832 0.059933
C57   C     C_R   0.421686 0.009409 0.932063 0.052487
C58   C     C_R   0.921676 0.509355 0.932058 0.052528
C59   C     C_R   0.429084 0.026759 0.072060 0.038629
C60   C     C_R   0.929059 0.526688 0.072068 0.038486
N1    N     N_R   0.498810 0.000000 0.142780 -0.120041
N2    N     N_R   0.998810 0.500000 0.142780 -0.120065
C61   C     C_R   0.568808 0.974221 0.071126 0.005822
C62   C     C_R   0.068830 0.474292 0.071126 0.005659
C63   C     C_R   0.570784 0.978342 0.930512 0.272459
C64   C     C_R   0.070796 0.478402 0.930512 0.272130
N3    N     N_R   0.498740 0.000000 0.857170 -0.097897
N4    N     N_R   0.998740 0.500000 0.857170 -0.098046
N5    N     N_R   0.423938 0.309182 0.389052 0.229909
O17   O     O_R   0.434163 0.354986 0.281962 -0.223672
O18   O     O_R   0.489890 0.296511 0.464922 -0.395987
N6    N     N_R   0.326788 0.790060 0.240760 0.264108
O19   O     O_R   0.293384 0.851437 0.167742 -0.360426
O20   O     O_R   0.401347 0.756497 0.208256 -0.252025
N7    N     N_R   0.923950 0.809127 0.388952 0.230093
O21   O     O_R   0.934155 0.854968 0.281892 -0.223609
O22   O     O_R   0.989952 0.796315 0.464664 -0.395989
N8    N     N_R   0.826832 0.289807 0.240712 0.263929
O23   O     O_R   0.793510 0.351071 0.167397 -0.360349
O24   O     O_R   0.901328 0.256041 0.208323 -0.252034
N9    N     N_R   0.186383 0.951817 0.972995 0.267598
O25   O     O_R   0.113776 0.994291 0.986453 -0.255062
O26   O     O_R   0.186707 0.865861 0.950197 -0.233590
N10   N     N_R   0.686304 0.451867 0.972840 0.267358
O27   O     O_R   0.613774 0.494617 0.985604 -0.255561
O28   O     O_R   0.686462 0.365797 0.950893 -0.233467
I1    I     I_    0.259181 0.988201 0.708060 -0.180472
I2    I     I_    0.759170 0.488153 0.708024 -0.180601
I3    I     I_    0.691659 0.944131 0.850336 -0.240504
I4    I     I_    0.191628 0.444092 0.850312 -0.240400
I5    I     I_    0.425361 0.242773 0.825887 0.015944
I6    I     I_    0.452334 0.574092 0.469857 -0.029032
I7    I     I_    0.925320 0.742619 0.826048 0.015491
I8    I     I_    0.952309 0.074117 0.469823 -0.028965
N11   N     N_R   0.593313 0.697709 0.931495 0.264942
O29   O     O_R   0.526288 0.648416 0.910955 -0.266303
O30   O     O_R   0.608926 0.726918 0.051263 -0.302917
N12   N     N_R   0.797956 0.119862 0.951801 0.254786
O31   O     O_R   0.849168 0.059614 0.000418 -0.266526
O32   O     O_R   0.763239 0.178376 0.032484 -0.266239
N13   N     N_R   0.093376 0.197623 0.931483 0.264873
O33   O     O_R   0.108875 0.226993 0.051195 -0.302881
O34   O     O_R   0.026469 0.148156 0.910974 -0.266394
N14   N     N_R   0.297807 0.620007 0.951691 0.254799
O35   O     O_R   0.348402 0.559242 0.000372 -0.267441
O36   O     O_R   0.264420 0.679462 0.032079 -0.265226
N15   N     N_R   0.544605 0.749928 0.667741 0.198082
O37   O     O_R   0.491701 0.784487 0.755180 -0.352707
O38   O     O_R   0.522852 0.747376 0.543994 -0.445925
N16   N     N_R   0.650629 0.205219 0.806347 0.276766
O39   O     O_R   0.609684 0.273830 0.759166 -0.273702
O40   O     O_R   0.618746 0.163129 0.906363 -0.339932
N17   N     N_R   0.044620 0.249914 0.667808 0.198093
O41   O     O_R   0.991723 0.284428 0.755295 -0.352787
O42   O     O_R   0.022843 0.247387 0.544071 -0.445952
N18   N     N_R   0.150594 0.705122 0.806297 0.276445
O43   O     O_R   0.109545 0.773651 0.759079 -0.273635
O44   O     O_R   0.119091 0.663382 0.906910 -0.340233
I9    I     I_    0.770894 0.954979 0.301494 -0.090606
I10   I     I_    0.623282 0.252270 0.223026 0.187431
I11   I     I_    0.270894 0.455003 0.301557 -0.090777
I12   I     I_    0.123458 0.751911 0.222630 0.187254
N19   N     N_R   0.370704 0.166175 0.162195 0.199372
O45   O     O_R   0.303569 0.216929 0.182316 -0.389432
O46   O     O_R   0.443182 0.204181 0.137380 -0.288706
N20   N     N_R   0.870595 0.666042 0.162261 0.199383
O47   O     O_R   0.803433 0.716754 0.182409 -0.389430
O48   O     O_R   0.943076 0.704091 0.137602 -0.288785
I13   I     I_    0.187234 0.052872 0.266247 0.015825
I14   I     I_    0.687133 0.552604 0.266138 0.015796

loop_
_geom_bond_atom_site_label_1
_geom_bond_atom_site_label_2
_geom_bond_distance
_ccdc_geom_bond_type
C34   C38   1.395266 A    
C39   C41   1.413633 A    
N7    O21   1.299526 A    
C31   C35   1.401144 A    
Zn4   O16   2.013916 S    
C16   C18   1.402475 A    
N5    O17   1.299526 A    
O10   C6    1.308134 A    
C39   N7    1.440946 S    
N8    O24   1.301723 A    
C18   N12   1.434326 S    
C54   N10   1.433640 S    
O7    C3    1.303881 A    
C10   C30   1.414593 A    
Zn1   O10   2.000739 S    
C12   C16   1.394367 A    
N12   O32   1.295048 A    
C58   C60   1.436858 A    
C24   C28   1.411295 A    
N19   O46   1.295897 A    
C15   H3    1.070009 S    
C60   N2    1.366114 A    
C50   N20   1.433846 S    
C20   N14   1.433882 S    
C57   N3    1.422846 A    
C9    C13   1.385264 A    
C1    C34   1.506929 S    
C18   C22   1.431614 A    
C17   N11   1.436443 S    
O2    Zn1   2.013907 S    
N10   O27   1.299778 A    
O6    Zn3   2.000839 S    
C38   N6    1.430701 S    
C4    C35   1.474585 S    
C49   C59   1.389847 A    
Zn3   O14   2.013916 S    
C19   C23   1.414750 A    
N9    O25   1.299467 A    
N20   O48   1.295918 A    
O15   C7    1.325914 A    
O4    C4    1.295248 A    
O11   C7    1.317313 A    
C43   C47   1.427001 A    
C44   I12   2.119146 S    
C44   C48   1.422546 A    
C59   N1    1.366156 A    
O8    Zn4   2.000839 S    
C25   C45   1.432149 A    
N15   O38   1.295870 A    
N9    O26   1.296674 A    
C27   C47   1.432147 A    
C12   I8    2.135890 S    
N8    O23   1.293822 A    
C55   C57   1.485073 A    
C28   C30   1.387164 A    
N10   O28   1.297043 A    
C51   C53   1.389629 A    
N11   O30   1.301540 A    
C10   C14   1.394471 A    
C53   N9    1.433715 S    
C13   C19   1.386056 A    
Zn2   O12   2.000739 S    
C16   H4    1.081707 S    
C2    C33   1.474577 S    
O1    C1    1.343219 A    
C56   I2    2.169543 S    
N16   O40   1.298404 A    
C19   N13   1.436341 S    
C53   C55   1.436089 A    
C29   C33   1.401042 A    
C23   C27   1.436050 A    
O12   C8    1.308119 A    
C25   C31   1.385268 A    
C9    I5    2.088147 S    
C26   C32   1.387132 A    
C32   C36   1.392924 A    
Zn1   N3    2.059360 S    
C27   C29   1.385248 A    
C40   C42   1.402770 A    
N14   O36   1.294159 A    
N13   O34   1.299176 A    
O5    C1    1.303913 A    
C28   C48   1.430572 A    
C63   N3    1.389310 A    
C64   I4    2.105450 S    
C37   C43   1.413598 A    
C62   C64   1.421925 A    
C21   C25   1.436102 A    
O8    C4    1.335388 A    
C64   N4    1.389255 A    
C24   N18   1.428580 S    
C58   N4    1.422888 A    
C49   C51   1.373810 A    
C11   I7    2.088147 S    
N11   O29   1.299244 A    
O3    Zn2   2.020033 S    
C54   C56   1.436058 A    
O7    Zn4   2.027708 S    
C57   C59   1.436795 A    
N2    C62   1.356764 A    
Zn4   O15   2.020041 S    
C56   C58   1.485146 A    
N1    C61   1.356778 A    
C43   I11   2.151031 S    
N15   O37   1.301914 A    
C11   C15   1.385270 A    
C8    C47   1.452840 S    
O1    Zn1   2.020033 S    
C23   N17   1.423602 S    
C3    C36   1.506908 S    
O2    C2    1.295296 A    
C50   C60   1.389806 A    
C42   I10   2.118843 S    
Zn3   N1    2.060033 S    
C30   C34   1.392941 A    
C40   N8    1.430849 S    
C14   C20   1.402335 A    
O13   C5    1.326069 A    
N5    O18   1.301408 A    
C14   H2    1.081717 S    
C35   C39   1.394559 A    
Zn2   O11   2.027604 S    
O16   C8    1.311312 A    
C50   C52   1.373763 A    
N16   O39   1.300749 A    
O6    C2    1.335358 A    
N17   O41   1.301917 A    
C37   N5    1.440848 S    
C33   C37   1.394515 A    
C38   C44   1.402787 A    
C10   I6    2.135861 S    
C22   C26   1.411497 A    
C21   N15   1.423620 S    
Zn1   O9    2.027604 S    
C36   C40   1.395277 A    
O9    C5    1.317215 A    
H6    C62   1.075690 S    
N14   O35   1.301917 A    
C26   C46   1.430694 A    
H5    C61   1.075691 S    
N19   O45   1.300629 A    
C51   I13   2.131466 S    
Zn2   N4    2.059360 S    
N17   O42   1.295863 A    
C52   I14   2.131371 S    
C42   C46   1.422467 A    
C9    C29   1.406318 A    
C49   N19   1.433828 S    
C41   C45   1.427043 A    
C61   C63   1.421941 A    
C63   I3    2.105632 S    
C52   C54   1.389494 A    
O4    Zn2   2.013907 S    
C15   C17   1.386068 A    
N6    O20   1.301736 A    
C13   H1    1.069976 S    
O5    Zn3   2.027708 S    
O3    C3    1.343247 A    
C22   N16   1.428638 S    
C20   C24   1.431117 A    
Zn3   O13   2.020041 S    
N20   O47   1.300640 A    
N7    O22   1.301394 A    
N6    O19   1.293777 A    
O14   C6    1.311315 A    
C55   I1    2.169501 S    
Zn4   N2    2.060033 S    
C6    C45   1.452869 S    
C17   C21   1.414775 A    
N18   O43   1.300717 A    
C5    C46   1.494938 S    
C11   C31   1.406370 A    
C41   I9    2.151063 S    
C12   C32   1.414422 A    
N18   O44   1.298276 A    
C7    C48   1.494828 S    
N13   O33   1.301440 A    
N12   O31   1.302162 A    
