data_mof_unit_8166.cif
_audit_creation_date              2013-03-05T16:25:43-0500
_audit_creation_method            fapswitch 2.2
_symmetry_space_group_name_H-M    P1
_symmetry_Int_Tables_number       1
_space_group_crystal_system       triclinic
_cell_length_a                    10.854452
_cell_length_b                    15.094623
_cell_length_c                    13.838549
_cell_angle_alpha                 90.066344
_cell_angle_beta                  90.951106
_cell_angle_gamma                 89.838795
_cell_volume                      2267.03853574

loop_
_atom_site_label
_atom_site_type_symbol
_atom_site_description
_atom_site_fract_x
_atom_site_fract_y
_atom_site_fract_z
_atom_type_partial_charge
O1    O     O_R   0.500010 0.371450 0.581430 -0.598405
O2    O     O_R   0.499990 0.628550 0.418570 -0.614227
O3    O     O_R   0.500010 0.371460 0.418560 -0.573988
O4    O     O_R   0.499990 0.628540 0.581440 -0.545845
C1    C     C_R   0.502054 0.329751 0.499888 0.859762
C2    C     C_R   0.501591 0.670094 0.500062 0.889314
O5    O     O_R   0.319640 0.500000 0.581430 -0.595547
O6    O     O_R   0.680360 0.500000 0.418570 -0.568538
O7    O     O_R   0.319640 0.500010 0.418560 -0.588851
O8    O     O_R   0.680360 0.499990 0.581440 -0.582875
C3    C     C_R   0.262125 0.501244 0.499127 0.819159
C4    C     C_R   0.737879 0.497565 0.501024 0.867264
Cu1   Cu    Cu3+1 0.500000 0.499990 0.596430 0.993714
Cu2   Cu    Cu3+1 0.500000 0.500010 0.403570 0.986712
H1    H     H_    0.178524 0.685000 0.085178 0.162459
H2    H     H_    0.739234 0.335796 0.904810 0.155517
C5    C     C_R   0.149692 0.708160 0.236331 -0.223241
C6    C     C_R   0.778820 0.308099 0.755901 -0.171670
H3    H     H_    0.157934 0.779209 0.228564 0.170933
H4    H     H_    0.736723 0.243269 0.758969 0.177513
C7    C     C_R   0.124492 0.670518 0.326770 0.336535
C8    C     C_R   0.834030 0.337952 0.670459 0.348298
C9    C     C_R   0.112200 0.577174 0.333600 0.007455
C10   C     C_R   0.885987 0.424296 0.669313 -0.002443
C11   C     C_R   0.129150 0.524291 0.251248 -0.155194
C12   C     C_R   0.888422 0.475162 0.754413 -0.183214
H5    H     H_    0.117817 0.453108 0.255272 0.160150
H6    H     H_    0.929732 0.540428 0.754962 0.172060
C13   C     C_R   0.154668 0.563001 0.162369 -0.132941
C14   C     C_R   0.837522 0.442700 0.839120 -0.147248
H7    H     H_    0.165579 0.521906 0.098923 0.147899
H8    H     H_    0.840402 0.482341 0.904334 0.148161
C15   C     C_R   0.162601 0.654844 0.154680 -0.174520
C16   C     C_R   0.780720 0.360084 0.839393 -0.159648
C17   C     C_R   0.931036 0.531949 0.422842 -0.164046
C18   C     C_R   0.069189 0.466047 0.578481 -0.179175
H9    H     H_    0.877780 0.559219 0.362779 0.159513
H10   H     H_    0.122568 0.439427 0.638807 0.144255
C19   C     C_R   0.871726 0.496542 0.502782 -0.032523
C20   C     C_R   0.128388 0.500846 0.497899 -0.035903
C21   C     C_R   0.941497 0.463117 0.581936 0.071964
C22   C     C_R   0.058464 0.535115 0.419570 0.055204
C23   C     C_R   0.423865 0.097531 0.572502 0.191304
C24   C     C_R   0.415830 0.902591 0.431859 0.189333
C25   C     C_R   0.433389 0.189768 0.571363 -0.214227
C26   C     C_R   0.425523 0.810327 0.431779 -0.173980
H11   H     H_    0.386111 0.228414 0.625545 0.157233
H12   H     H_    0.372647 0.772061 0.379412 0.159893
C27   C     C_R   0.500934 0.232902 0.499809 -0.158822
C28   C     C_R   0.500827 0.766678 0.499962 -0.185674
C29   C     C_R   0.561639 0.182874 0.428224 0.375266
C30   C     C_R   0.569623 0.815719 0.568904 0.337473
C31   C     C_R   0.551485 0.090791 0.429585 -0.219014
C32   C     C_R   0.559086 0.907852 0.569238 -0.224820
H13   H     H_    0.599716 0.051567 0.376442 0.189517
H14   H     H_    0.613300 0.946408 0.620529 0.196550
C33   C     C_R   0.483795 0.048174 0.500791 0.043050
C34   C     C_R   0.483447 0.951246 0.501451 0.034333
C35   C     C_R   0.472666 0.579856 0.107463 0.091041
C36   C     C_R   0.414180 0.447970 0.891312 0.093981
C37   C     C_R   0.470068 0.575849 0.209574 0.087947
C38   C     C_R   0.418305 0.448312 0.789242 0.068696
H15   H     H_    0.443818 0.634251 0.249442 0.135270
H16   H     H_    0.354380 0.407803 0.747828 0.126229
N1    N     N_R   0.500000 0.500020 0.258690 -0.203822
N2    N     N_R   0.500000 0.499980 0.741310 -0.200751
C39   C     C_R   0.532214 0.425976 0.208165 0.087505
C40   C     C_R   0.580755 0.552013 0.791740 0.114726
H17   H     H_    0.557361 0.366107 0.246053 0.196696
H18   H     H_    0.645493 0.592593 0.753197 0.184312
C41   C     C_R   0.533072 0.425840 0.106539 -0.321858
C42   C     C_R   0.582495 0.552627 0.893278 -0.318083
H19   H     H_    0.557605 0.365644 0.068666 0.172798
H20   H     H_    0.650049 0.592934 0.931171 0.158452
C43   C     C_R   0.502201 0.502739 0.054268 0.097834
C44   C     C_R   0.498993 0.500736 0.945192 0.118869
C45   C     C_3   0.442959 0.665969 0.057269 -0.868443
H21   H     H_    0.526282 0.691901 0.021841 0.251493
H22   H     H_    0.369254 0.655620 0.001875 0.243795
H23   H     H_    0.411373 0.717267 0.108925 0.225652
C46   C     C_3   0.316247 0.392917 0.938128 -0.906072
H24   H     H_    0.333977 0.321693 0.923683 0.243182
H25   H     H_    0.311921 0.402967 0.017279 0.248360
H26   H     H_    0.224531 0.410984 0.907143 0.235542
N3    N     N_R   0.107404 0.727676 0.408996 0.111268
O9    O     O_R   0.134234 0.700583 0.496041 -0.363884
O10   O     O_R   0.075564 0.810113 0.396485 -0.345885
N4    N     N_R   0.839945 0.279079 0.588398 0.119193
O11   O     O_R   0.922774 0.289555 0.522532 -0.329118
O12   O     O_R   0.773950 0.207241 0.586125 -0.359478
C47   C     C_3   0.348460 0.052992 0.648818 -0.789755
H27   H     H_    0.275418 0.012087 0.613858 0.253877
H28   H     H_    0.408431 0.009915 0.694507 0.237550
H29   H     H_    0.303312 0.101995 0.696698 0.227372
C48   C     C_3   0.332459 0.947898 0.359007 -0.760923
H30   H     H_    0.262595 0.988212 0.397087 0.256103
H31   H     H_    0.387202 0.991585 0.311797 0.221228
H32   H     H_    0.283279 0.899417 0.312060 0.233515
N5    N     N_R   0.638214 0.223338 0.356901 0.118529
O13   O     O_R   0.714095 0.286421 0.381175 -0.311080
O14   O     O_R   0.646160 0.188283 0.271253 -0.379908
N6    N     N_R   0.654478 0.773769 0.635451 0.124549
O15   O     O_R   0.670689 0.806065 0.721991 -0.360150
O16   O     O_R   0.728486 0.711852 0.605652 -0.367570

loop_
_geom_bond_atom_site_label_1
_geom_bond_atom_site_label_2
_geom_bond_distance
_ccdc_geom_bond_type
N2    C40   1.361821 A    
C48   H30   1.110415 S    
C43   C44   1.509533 S    
C35   C45   1.506109 S    
C46   H24   1.110159 S    
C48   H32   1.110021 S    
C19   C21   1.414063 A    
C45   H21   1.108481 S    
O5    C3    1.289837 A    
C30   N6    1.437804 S    
C9    C22   1.478347 S    
O1    C1    1.291946 A    
C17   H9    1.085347 S    
C10   C12   1.405029 A    
C13   C15   1.393548 A    
C36   C38   1.413961 A    
C25   H11   1.084409 S    
O4    Cu1   1.951709 S    
C37   H15   1.079528 S    
C17   C22   1.385616 A    
C38   H16   1.082679 S    
H2    C16   1.082565 S    
C24   C26   1.396366 A    
N1    C39   1.365435 A    
C28   C30   1.411966 A    
C8    N4    1.443343 S    
C14   H8    1.082303 S    
C39   C41   1.406544 A    
C42   C44   1.406446 A    
O7    C3    1.286922 A    
C45   H22   1.110026 S    
Cu1   Cu2   2.668904 S    
C11   C13   1.394575 A    
C10   C21   1.481997 S    
C1    C27   1.461992 S    
C18   C21   1.388470 A    
O2    C2    1.289608 A    
C5    C15   1.395201 A    
C46   H25   1.107363 S    
C30   C32   1.395095 A    
C7    N3    1.441317 S    
Cu1   N2    2.004929 S    
C31   H13   1.084198 S    
C29   N5    1.438608 S    
C26   H12   1.084115 S    
C35   C37   1.415174 A    
C38   N2    1.363525 A    
N3    O10   1.301512 A    
C3    C20   1.451483 S    
C18   C20   1.399782 A    
C42   H20   1.082510 S    
C24   C34   1.408348 A    
C47   H27   1.110496 S    
C41   H19   1.083226 S    
C14   C16   1.392732 A    
C27   C29   1.415245 A    
N3    O9    1.300726 A    
C36   C44   1.420497 A    
C23   C47   1.506888 S    
C40   C42   1.404964 A    
C29   C31   1.394814 A    
C17   C19   1.396719 A    
O7    Cu2   1.972091 S    
C47   H28   1.109595 S    
C23   C25   1.396521 A    
C36   C46   1.506440 S    
N5    O13   1.300937 A    
C25   C27   1.403647 A    
O6    C4    1.292078 A    
C2    C28   1.457906 S    
N6    O16   1.301826 A    
C6    C16   1.395825 A    
O3    Cu2   1.951709 S    
O8    C4    1.285455 A    
O4    C2    1.290084 A    
N5    O14   1.301501 A    
N4    O12   1.301353 A    
C12   C14   1.394205 A    
C7    C9    1.419076 A    
C8    C10   1.421783 A    
O1    Cu1   1.951097 S    
C35   C43   1.415433 A    
C46   H26   1.110808 S    
C32   C34   1.398550 A    
C45   H23   1.110625 S    
O6    Cu2   1.965253 S    
C6    C8    1.409436 A    
O3    C1    1.290056 A    
O8    Cu1   1.972089 S    
C31   C33   1.397430 A    
C48   H31   1.109440 S    
C32   H14   1.084389 S    
C11   H5    1.083448 S    
C26   C28   1.401901 A    
C12   H6    1.083528 S    
C4    C19   1.452664 S    
C18   H10   1.085138 S    
C13   H7    1.082356 S    
C24   C48   1.506934 S    
C47   H29   1.110821 S    
C41   C43   1.405213 A    
C33   C34   1.463150 S    
C20   C22   1.410818 A    
C5    H3    1.082058 S    
Cu2   N1    2.004928 S    
C6    H4    1.082354 S    
C9    C11   1.404933 A    
N6    O15   1.301908 A    
O2    Cu2   1.951097 S    
C5    C7    1.406377 A    
C23   C33   1.407128 A    
C37   N1    1.367506 A    
O5    Cu1   1.965253 S    
N4    O11   1.300956 A    
C40   H18   1.081255 S    
C39   H17   1.077512 S    
H1    C15   1.081257 S    
