data_mof_unit_24909.cif
_audit_creation_date              2012-12-10T19:11:27-0500
_audit_creation_method            fapswitch 2.2
_symmetry_space_group_name_H-M    P1
_symmetry_Int_Tables_number       1
_space_group_crystal_system       triclinic
_cell_length_a                    10.626176
_cell_length_b                    9.709995
_cell_length_c                    10.495323
_cell_angle_alpha                 89.63072
_cell_angle_beta                  89.962052
_cell_angle_gamma                 89.99339
_cell_volume                      1082.88590668

loop_
_atom_site_label
_atom_site_type_symbol
_atom_type_description
_atom_site_fract_x
_atom_site_fract_y
_atom_site_fract_z
_atom_type_partial_charge
C1    C     C_R   0.257649 0.500287 0.499893 0.833940
C2    C     C_3   0.500136 0.501607 0.122185 0.039248
C3    C     C_3   0.071529 0.651818 0.498600 -0.402251
C4    C     C_3   0.072247 0.426834 0.620964 -0.407456
C5    C     C_3   0.928667 0.651816 0.498260 -0.399941
C6    C     C_3   0.927796 0.427039 0.621032 -0.407743
C7    C     C_3   0.072469 0.426388 0.379596 -0.409057
C8    C     C_3   0.121339 0.501282 0.499749 0.202104
C9    C     C_3   0.878894 0.501273 0.499679 0.201818
C10   C     C_3   0.927998 0.426195 0.379655 -0.408758
C11   C     C_3   0.376209 0.081502 0.457019 -0.232274
C12   C     C_3   0.376203 0.919104 0.457065 -0.234936
C13   C     C_3   0.595947 0.081843 0.408842 -0.234970
C14   C     C_3   0.595926 0.919324 0.408834 -0.235543
C15   C     C_3   0.527238 0.080279 0.625554 -0.234382
C16   C     C_3   0.527261 0.918057 0.625557 -0.228309
C17   C     C_R   0.500087 0.500525 0.257114 0.864595
C18   C     C_R   0.742582 0.500278 0.499795 0.832734
C19   C     C_R   0.500213 0.499469 0.742775 0.866199
C20   C     C_3   0.499772 0.631590 0.039176 -0.146618
C21   C     C_3   0.396767 0.434705 0.042849 -0.185058
C22   C     C_3   0.396401 0.564513 0.957115 -0.186971
C23   C     C_3   0.500239 0.498361 0.877709 0.039479
C24   C     C_3   0.603614 0.565257 0.957044 -0.186646
C25   C     C_3   0.500614 0.368374 0.960718 -0.145188
C26   C     C_3   0.603983 0.435450 0.042788 -0.186685
H1    H     H_    0.312062 0.616676 0.917184 0.115981
H2    H     H_    0.892643 0.478331 0.291905 0.147960
H3    H     H_    0.893526 0.317931 0.378134 0.165792
H4    H     H_    0.300928 0.118560 0.522014 0.141500
H5    H     H_    0.301005 0.881300 0.522192 0.141227
H6    H     H_    0.578470 0.120726 0.310529 0.146237
H7    H     H_    0.578425 0.881739 0.310546 0.141225
H8    H     H_    0.619967 0.118702 0.659336 0.139400
H9    H     H_    0.620017 0.879203 0.659336 0.139257
H10   H     H_    0.456063 0.117504 0.695058 0.141268
H11   H     H_    0.456091 0.880001 0.695123 0.146272
H12   H     H_    0.690919 0.119643 0.436090 0.140276
H13   H     H_    0.690884 0.881149 0.436108 0.140746
H14   H     H_    0.499422 0.738823 0.075311 0.123470
H15   H     H_    0.312724 0.381935 0.082842 0.116824
H16   H     H_    0.687644 0.618044 0.917051 0.115764
H17   H     H_    0.501008 0.261134 0.924612 0.122367
H18   H     H_    0.688313 0.383283 0.082747 0.116385
H19   H     H_    0.106202 0.707989 0.412576 0.165147
H20   H     H_    0.106753 0.318585 0.624224 0.167333
H21   H     H_    0.105605 0.708059 0.584105 0.163546
H22   H     H_    0.107583 0.479427 0.707864 0.148189
H23   H     H_    0.894038 0.708513 0.583337 0.165165
H24   H     H_    0.892541 0.480015 0.707816 0.148010
H25   H     H_    0.894517 0.707532 0.411822 0.164008
H26   H     H_    0.893060 0.318895 0.624631 0.168456
H27   H     H_    0.107745 0.478869 0.291946 0.148256
H28   H     H_    0.107204 0.318216 0.377785 0.166130
N1    N     N_3   0.499750 0.138610 0.497240 -0.027422
N2    N     N_3   0.499750 0.861390 0.497240 -0.028029
O1    O     O_R   0.314910 0.616040 0.499970 -0.636419
O2    O     O_R   0.314910 0.383960 0.499970 -0.635018
O3    O     O_R   0.500080 0.616020 0.313900 -0.632286
O4    O     O_R   0.500080 0.383980 0.313900 -0.627747
O5    O     O_R   0.685320 0.616040 0.499930 -0.635868
O6    O     O_R   0.685320 0.383960 0.499930 -0.634105
O7    O     O_R   0.500150 0.616060 0.686000 -0.630572
O8    O     O_R   0.500150 0.383940 0.686000 -0.633920
Zn1   Zn    Zn3+2 0.500150 0.654960 0.499940 0.894041
Zn2   Zn    Zn3+2 0.500150 0.345040 0.499940 0.895260
H29   H     H_    0.351971 0.120902 0.360325 0.139609
H30   H     H_    0.351860 0.880961 0.360433 0.138957

loop_
_geom_bond_atom_site_label_1
_geom_bond_atom_site_label_2
_ccdc_geom_bond_type
C7    C10   S    
C19   C23   S    
C23   C24   S    
O7    Zn1   S    
C18   O5    A    
C5    C9    S    
C1    O1    A    
C1    C8    S    
C24   H16   S    
C9    C10   S    
C16   H11   S    
C15   H8    S    
C14   N2    S    
C12   H5    S    
C4    C8    S    
C19   O8    A    
C11   C12   S    
O1    Zn1   S    
C20   C24   S    
C25   H17   S    
C14   H7    S    
C16   N2    S    
C14   H13   S    
C26   H18   S    
C7    C8    S    
C2    C26   S    
C15   N1    S    
C4    H20   S    
C21   C22   S    
O3    Zn1   S    
C2    C17   S    
C12   H30   S    
C10   H3    S    
C5    H23   S    
C13   H12   S    
C12   N2    S    
C2    C21   S    
C1    O2    A    
C9    C18   S    
C17   O3    A    
C21   H15   S    
C5    H25   S    
C3    H21   S    
C24   C26   S    
C3    H19   S    
C22   H1    S    
C23   C25   S    
C16   H9    S    
C20   H14   S    
C13   N1    S    
C20   C22   S    
C17   O4    A    
O4    Zn2   S    
C15   C16   S    
O5    Zn1   S    
C15   H10   S    
C6    C9    S    
O6    Zn2   S    
C11   N1    S    
C11   H29   S    
C4    C6    S    
C3    C8    S    
C4    H22   S    
C10   H2    S    
C7    H27   S    
C22   C23   S    
C18   O6    A    
C21   C25   S    
C13   H6    S    
C7    H28   S    
C6    H26   S    
C25   C26   S    
C13   C14   S    
C2    C20   S    
O2    Zn2   S    
C6    H24   S    
N2    Zn1   S    
C11   H4    S    
C19   O7    A    
N1    Zn2   S    
C3    C5    S    
O8    Zn2   S    
