data_mof_unit_26292.cif
_audit_creation_date              2012-12-10T18:58:10-0500
_audit_creation_method            fapswitch 2.2
_symmetry_space_group_name_H-M    P1
_symmetry_Int_Tables_number       1
_space_group_crystal_system       triclinic
_cell_length_a                    11.048689
_cell_length_b                    10.827951
_cell_length_c                    9.539751
_cell_angle_alpha                 90.163182
_cell_angle_beta                  102.649272
_cell_angle_gamma                 89.755795
_cell_volume                      1113.57229203

loop_
_atom_site_label
_atom_site_type_symbol
_atom_type_description
_atom_site_fract_x
_atom_site_fract_y
_atom_site_fract_z
_atom_type_partial_charge
C1    C     C_R   0.506902 0.262476 0.501200 0.802105
C2    C     C_R   0.523209 0.129221 0.505695 -0.109822
C3    C     C_R   0.576476 0.060977 0.405829 0.139982
C4    C     C_R   0.569953 0.931345 0.407721 -0.257060
C5    C     C_R   0.513189 0.870417 0.505842 -0.136567
C6    C     C_R   0.481192 0.938953 0.616290 0.066630
C7    C     C_3   0.370628 0.939934 0.684877 -0.042655
C8    C     C_3   0.379388 0.080907 0.684524 -0.505553
C9    C     C_R   0.592329 0.557807 0.097132 0.266608
C10   C     C_R   0.416112 0.432728 0.052971 -0.091128
C11   C     C_R   0.416012 0.432819 0.903986 -0.090268
C12   C     C_R   0.262790 0.498982 0.441778 0.868273
C13   C     C_R   0.592746 0.557225 0.949838 0.265311
C14   C     C_3   0.626196 0.690425 0.951861 -0.504804
C15   C     C_3   0.623834 0.691673 0.110184 -0.527795
C16   C     C_R   0.500954 0.737616 0.500733 0.821657
C17   C     C_R   0.737224 0.499786 0.558204 0.849038
C18   C     C_2   0.127856 0.496790 0.408814 -0.362831
C19   C     C_2   0.067241 0.491263 0.515299 -0.170727
C20   C     C_2   0.872158 0.497172 0.590941 -0.364398
C21   C     C_2   0.932625 0.493371 0.484155 -0.157486
C22   C     C_R   0.487958 0.065149 0.616786 0.062577
Cu1   Cu    Cu3+1 0.499990 0.499980 0.640670 0.929313
Cu2   Cu    Cu3+1 0.500010 0.500020 0.359330 0.930360
H1    H     H_    0.882721 0.492959 0.372371 0.180576
H2    H     H_    0.406969 0.120981 0.794275 0.183172
H3    H     H_    0.346860 0.380087 0.091128 0.138102
H4    H     H_    0.346609 0.380302 0.830381 0.137212
H5    H     H_    0.552143 0.748466 0.886046 0.214347
H6    H     H_    0.720391 0.704644 0.931401 0.193632
H7    H     H_    0.716273 0.708461 0.181509 0.191906
H8    H     H_    0.546697 0.748909 0.132955 0.214668
H9    H     H_    0.117091 0.487614 0.627011 0.181432
H10   H     H_    0.922307 0.497918 0.702540 0.148027
H11   H     H_    0.077792 0.500483 0.297271 0.145532
H12   H     H_    0.607972 0.877979 0.331512 0.152513
H13   H     H_    0.394086 0.902482 0.796107 0.162817
H14   H     H_    0.301268 0.129899 0.612447 0.184510
N1    N     N_R   0.500780 0.500930 0.148120 -0.183819
N2    N     N_R   0.500790 0.500890 0.852210 -0.187650
O1    O     O_R   0.500000 0.319640 0.618810 -0.576720
O2    O     O_R   0.500010 0.319680 0.381230 -0.588290
O3    O     O_R   0.320680 0.500000 0.575130 -0.592184
O4    O     O_R   0.320690 0.500040 0.337550 -0.582695
O5    O     O_R   0.499990 0.680320 0.618770 -0.583323
O6    O     O_R   0.500000 0.680360 0.381190 -0.584562
O7    O     O_R   0.679310 0.499960 0.662450 -0.580738
O8    O     O_R   0.679320 0.500000 0.424870 -0.581366
C23   C     C_3   0.640395 0.119928 0.297268 -0.388960
C24   C     C_3   0.761664 0.181829 0.371075 -0.789295
H15   H     H_    0.804192 0.227087 0.289369 0.232135
H16   H     H_    0.745589 0.252752 0.448917 0.250031
H17   H     H_    0.827598 0.111723 0.429053 0.239929
H18   H     H_    0.663674 0.049126 0.222589 0.186585
H19   H     H_    0.578232 0.185990 0.227282 0.221485
C25   C     C_3   0.248879 0.889242 0.590337 -0.347263
C26   C     C_3   0.200275 0.780793 0.663233 -0.857946
H20   H     H_    0.271137 0.706566 0.687219 0.282983
H21   H     H_    0.176696 0.811513 0.765239 0.243677
H22   H     H_    0.115214 0.743859 0.591544 0.253272
H23   H     H_    0.175347 0.961460 0.571736 0.206357
H24   H     H_    0.262048 0.859280 0.483184 0.199151

loop_
_geom_bond_atom_site_label_1
_geom_bond_atom_site_label_2
_ccdc_geom_bond_type
C10   H3    S    
C2    C22   A    
C8    C22   S    
Cu1   Cu2   S    
C4    H12   S    
C15   H7    S    
C6    C7    S    
Cu1   O5    S    
C8    H2    S    
C18   H11   S    
C24   H16   S    
Cu1   O1    S    
C17   O8    A    
C20   H10   S    
Cu2   N1    S    
C14   C15   S    
C2    C3    A    
C7    H13   S    
Cu2   O6    S    
C15   H8    S    
C12   O4    A    
C13   C14   S    
C25   C26   S    
C26   H20   S    
C11   N2    A    
C8    H14   S    
C11   H4    S    
C14   H6    S    
C4    C5    A    
C7    C25   S    
C1    O1    A    
C19   C21   S    
C24   H15   S    
C12   O3    A    
C3    C23   S    
C5    C6    A    
Cu2   O4    S    
C25   H24   S    
C26   H21   S    
C24   H17   S    
Cu1   O7    S    
C10   C11   A    
C13   N2    A    
C16   O5    A    
C12   C18   S    
Cu1   N2    S    
C6    C22   A    
C17   O7    A    
C1    O2    A    
C9    N1    A    
C17   C20   S    
Cu2   O2    S    
C20   C21   D    
C1    C2    S    
C19   H9    S    
C16   O6    A    
C23   C24   S    
C7    C8    S    
C9    C13   A    
C25   H23   S    
C18   C19   D    
C26   H22   S    
C21   H1    S    
C14   H5    S    
C23   H19   S    
Cu1   O3    S    
C3    C4    A    
C23   H18   S    
C9    C15   S    
C10   N1    A    
C5    C16   S    
Cu2   O8    S    
