data_mof_unit_47240.cif
_audit_creation_date              2012-12-10T19:43:26-0500
_audit_creation_method            fapswitch 2.2
_symmetry_space_group_name_H-M    P1
_symmetry_Int_Tables_number       1
_space_group_crystal_system       triclinic
_cell_length_a                    10.894795
_cell_length_b                    10.744241
_cell_length_c                    9.691851
_cell_angle_alpha                 89.787583
_cell_angle_beta                  91.117685
_cell_angle_gamma                 95.014214
_cell_volume                      1129.93329117

loop_
_atom_site_label
_atom_site_type_symbol
_atom_type_description
_atom_site_fract_x
_atom_site_fract_y
_atom_site_fract_z
_atom_type_partial_charge
C1    C     C_R   0.497262 0.262843 0.500115 0.769631
C2    C     C_R   0.156891 0.378833 0.965346 -0.132159
C3    C     C_R   0.928063 0.465821 0.380004 -0.158481
C4    C     C_R   0.869403 0.478643 0.504749 -0.081777
C5    C     C_R   0.939800 0.479721 0.628078 -0.004762
C6    C     C_R   0.067530 0.495300 0.621363 -0.237233
C7    C     C_R   0.127205 0.488985 0.495285 -0.095385
C8    C     C_R   0.055230 0.467553 0.373178 -0.015193
C9    C     C_R   0.907635 0.535403 0.872238 -0.153360
C10   C     C_R   0.858855 0.506724 0.000742 -0.149634
C11   C     C_R   0.783427 0.396512 0.021566 -0.182645
C12   C     C_R   0.262185 0.496078 0.498266 0.759002
C13   C     C_R   0.760160 0.310511 0.913993 0.043333
C14   C     C_R   0.813578 0.337719 0.785289 -0.142750
C15   C     C_R   0.884899 0.451517 0.763542 0.113693
C16   C     C_R   0.268183 0.109347 0.441588 -0.177882
C17   C     C_R   0.159561 0.034001 0.413814 -0.138251
C18   C     C_R   0.160684 0.904633 0.409457 -0.141130
C19   C     C_R   0.270002 0.849534 0.435295 -0.174358
C20   C     C_R   0.380424 0.923674 0.466716 0.102401
C21   C     C_R   0.379857 0.055187 0.468538 0.083986
C22   C     C_R   0.490903 0.128368 0.500079 -0.078881
C23   C     C_R   0.497275 0.736667 0.499907 0.757562
C24   C     C_R   0.598854 0.072934 0.532262 -0.107357
C25   C     C_R   0.598487 0.944436 0.534573 -0.205872
C26   C     C_R   0.491143 0.870078 0.499664 -0.096842
C27   C     C_R   0.631301 0.711288 0.134624 0.021266
C28   C     C_R   0.663349 0.815926 0.051861 -0.233373
C29   C     C_R   0.674038 0.801939 0.912108 -0.190847
C30   C     C_R   0.637481 0.688361 0.852818 -0.118244
C31   C     C_R   0.565840 0.595463 0.924786 0.202761
C32   C     C_R   0.565510 0.599508 0.074173 0.145622
C33   C     C_R   0.444588 0.404310 0.072795 0.005668
C34   C     C_R   0.736459 0.491995 0.501687 0.797326
C35   C     C_R   0.444595 0.404504 0.925729 -0.058932
C36   C     C_R   0.179294 0.501830 0.012997 -0.151434
C37   C     C_R   0.152101 0.531027 0.148875 -0.082646
C38   C     C_R   0.103761 0.436583 0.237819 0.126071
C39   C     C_R   0.081505 0.313742 0.188842 -0.164138
C40   C     C_R   0.108783 0.284872 0.053409 -0.131414
Cu1   Cu    Cu3+1 0.499990 0.499990 0.640660 0.935649
Cu2   Cu    Cu3+1 0.500010 0.500010 0.359340 0.950833
H1    H     H_    0.177811 0.355390 0.860586 0.130713
H2    H     H_    0.742531 0.378491 0.121138 0.185287
H3    H     H_    0.798759 0.271959 0.701143 0.125373
H4    H     H_    0.683859 0.129521 0.555156 0.133843
H5    H     H_    0.263615 0.209567 0.443804 0.122257
H6    H     H_    0.073812 0.075677 0.396619 0.126085
H7    H     H_    0.076307 0.846646 0.387216 0.158900
H8    H     H_    0.266873 0.748874 0.432150 0.132525
H9    H     H_    0.682875 0.902690 0.561308 0.124231
H10   H     H_    0.397358 0.326093 0.126119 0.157387
H11   H     H_    0.216846 0.574566 0.944395 0.137190
H12   H     H_    0.704238 0.902691 0.096779 0.157378
H13   H     H_    0.719987 0.876124 0.851258 0.188344
H14   H     H_    0.667991 0.675938 0.750339 0.193575
H15   H     H_    0.398523 0.325768 0.870923 0.142769
H16   H     H_    0.165853 0.626983 0.183764 0.127485
H17   H     H_    0.038668 0.241480 0.254252 0.119296
H18   H     H_    0.090738 0.190109 0.016064 0.135711
H19   H     H_    0.874207 0.451715 0.286499 0.171637
H20   H     H_    0.120395 0.507033 0.716323 0.160834
H21   H     H_    0.964146 0.622388 0.857893 0.130096
H22   H     H_    0.881345 0.570682 0.083490 0.207384
N1    N     N_R   0.501190 0.501210 0.147910 -0.210004
N2    N     N_R   0.501230 0.501290 0.852040 -0.206831
O1    O     O_R   0.499990 0.319640 0.618810 -0.570754
O2    O     O_R   0.500000 0.319660 0.381240 -0.574616
O3    O     O_R   0.319640 0.500000 0.618780 -0.585769
O4    O     O_R   0.319650 0.500020 0.381210 -0.578881
O5    O     O_R   0.500000 0.680340 0.618760 -0.580884
O6    O     O_R   0.500010 0.680360 0.381190 -0.607447
O7    O     O_R   0.680350 0.499980 0.618790 -0.603155
O8    O     O_R   0.680360 0.500000 0.381220 -0.561773
C41   C     C_2   0.679869 0.193824 0.936721 0.798828
O9    O     O_2   0.658571 0.118897 0.842893 -0.624342
O10   O     O_R   0.627357 0.169494 0.065711 -0.787227
H23   H     H_    0.572351 0.088391 0.067596 0.332530
C42   C     C_2   0.709696 0.722605 0.260526 0.458773
H24   H     H_    0.691959 0.789627 0.338794 0.044116
O11   O     O_2   0.809878 0.680876 0.264600 -0.620691

loop_
_geom_bond_atom_site_label_1
_geom_bond_atom_site_label_2
_ccdc_geom_bond_type
C31   N2    A    
C12   O3    A    
C16   C21   A    
C40   H18   S    
Cu1   Cu2   S    
C19   C20   A    
C17   H6    S    
C33   N1    A    
C7    C8    A    
Cu1   O1    S    
O10   H23   S    
C33   H10   S    
C37   C38   A    
C36   C37   A    
C27   C42   S    
C5    C6    A    
Cu2   O4    S    
C1    O2    A    
C18   C19   A    
C23   C26   S    
C36   H11   S    
C1    O1    A    
C13   C41   S    
C16   C17   A    
Cu2   N1    S    
C9    C10   A    
C37   H16   S    
Cu1   O5    S    
C1    C22   S    
C21   C22   A    
Cu2   O2    S    
C8    C38   S    
C16   H5    S    
C14   H3    S    
C3    H19   S    
C7    C12   S    
C4    C34   S    
Cu2   O8    S    
C23   O5    A    
C38   C39   A    
C24   C25   A    
C3    C8    A    
C39   C40   A    
C42   O11   D    
C28   H12   S    
C29   H13   S    
C35   N2    A    
C25   C26   A    
C30   H14   S    
C41   O9    D    
C25   H9    S    
C29   C30   A    
C31   C32   A    
C2    H1    S    
C39   H17   S    
Cu2   O6    S    
C17   C18   A    
C11   H2    S    
C41   O10   S    
Cu1   N2    S    
C34   O8    A    
C22   C24   A    
C3    C4    A    
Cu1   O3    S    
C2    C36   A    
C12   O4    A    
C28   C29   A    
C27   C32   A    
C9    H21   S    
C23   O6    A    
C10   H22   S    
C4    C5    A    
C6    C7    A    
C35   H15   S    
C24   H4    S    
C6    H20   S    
C9    C15   A    
C11   C13   A    
C19   H8    S    
C30   C31   A    
C20   C26   A    
C33   C35   A    
C5    C15   S    
C10   C11   A    
C34   O7    A    
Cu1   O7    S    
C42   H24   S    
C2    C40   A    
C20   C21   A    
C27   C28   A    
C14   C15   A    
C13   C14   A    
C18   H7    S    
C32   N1    A    
