data_mof_unit_14476.cif
_audit_creation_date              2012-12-10T17:02:56-0500
_audit_creation_method            fapswitch 2.2
_symmetry_space_group_name_H-M    P1
_symmetry_Int_Tables_number       1
_space_group_crystal_system       triclinic
_cell_length_a                    9.802719
_cell_length_b                    11.044532
_cell_length_c                    13.436166
_cell_angle_alpha                 94.253828
_cell_angle_beta                  81.511713
_cell_angle_gamma                 111.243547
_cell_volume                      1340.64844687

loop_
_atom_site_label
_atom_site_type_symbol
_atom_type_description
_atom_site_fract_x
_atom_site_fract_y
_atom_site_fract_z
_atom_type_partial_charge
C1    C     C_R   0.556512 0.745469 0.507285 0.859729
C2    C     C_R   0.440108 0.509776 0.972548 0.096106
C3    C     C_R   0.481787 0.545222 0.870190 0.092857
C4    C     C_R   0.551563 0.543020 0.037688 0.035412
C5    C     C_R   0.699830 0.621482 0.002619 0.149404
C6    C     C_R   0.732607 0.668997 0.904837 -0.242443
C7    C     C_R   0.625429 0.633270 0.840648 -0.210284
C8    C     C_R   0.519763 0.498891 0.136571 -0.250303
C9    C     C_R   0.772555 0.611004 0.166610 -0.195330
C10   C     C_R   0.377655 0.493208 0.800527 -0.109327
C11   C     C_2   0.588364 0.884600 0.511352 -0.357159
C12   C     C_R   0.423828 0.495047 0.690819 0.783589
C13   C     C_2   0.484101 0.930519 0.498360 -0.150488
C14   C     C_2   0.411531 0.115377 0.488925 -0.359397
C15   C     C_2   0.515714 0.069450 0.502106 -0.151913
C16   C     C_2   0.922350 0.489630 0.491629 -0.073215
C17   C     C_2   0.077010 0.509229 0.509213 -0.075456
C18   C     C_R   0.443449 0.254527 0.492815 0.872881
C19   C     C_R   0.578184 0.513446 0.309561 0.811449
C20   C     C_R   0.811225 0.652746 0.067017 0.184192
C21   C     C_R   0.626619 0.537372 0.201962 -0.100004
C22   C     C_R   0.228964 0.426773 0.836319 -0.192715
C23   C     C_R   0.184498 0.405411 0.938387 -0.150018
C24   C     C_R   0.288242 0.443637 0.005731 -0.179618
Cu1   Cu    Cu3+1 0.362000 0.479240 0.482530 0.936765
Cu2   Cu    Cu3+1 0.638000 0.520760 0.517470 0.934941
H1    H     H_    0.855244 0.639918 0.217708 0.157269
H2    H     H_    0.374456 0.865422 0.484769 0.180683
H3    H     H_    0.302117 0.050001 0.475257 0.149408
H4    H     H_    0.697804 0.949969 0.524972 0.149186
H5    H     H_    0.125465 0.576842 0.568191 0.158279
H6    H     H_    0.873273 0.420860 0.433455 0.158104
H7    H     H_    0.106482 0.385193 0.400181 0.189159
H8    H     H_    0.894718 0.617137 0.598245 0.188939
H9    H     H_    0.841634 0.734372 0.876476 0.157066
H10   H     H_    0.411274 0.434756 0.165651 0.153514
H11   H     H_    0.147011 0.388405 0.785024 0.158025
H12   H     H_    0.244933 0.422595 0.083494 0.126301
H13   H     H_    0.069106 0.355045 0.965267 0.144211
H14   H     H_    0.656636 0.678777 0.768217 0.167332
H15   H     H_    0.625334 0.134544 0.515751 0.180891
N1    N     N_2   0.845330 0.551960 0.543750 -0.285596
N2    N     N_2   0.154690 0.448120 0.456210 -0.286345
O1    O     O_R   0.426290 0.668220 0.490680 -0.576260
O2    O     O_R   0.659360 0.703290 0.520190 -0.581860
O3    O     O_R   0.326580 0.473880 0.629020 -0.578531
O4    O     O_R   0.559660 0.508940 0.658530 -0.572544
O5    O     O_R   0.340640 0.296710 0.479810 -0.573846
O6    O     O_R   0.573710 0.331780 0.509320 -0.574191
O7    O     O_R   0.440340 0.491060 0.341470 -0.574388
O8    O     O_R   0.673420 0.526120 0.370980 -0.582804
C25   C     C_3   0.970567 0.732011 0.032204 -0.897686
H16   H     H_    0.012799 0.682869 0.966303 0.237720
H17   H     H_    0.980237 0.830431 0.011260 0.232168
H18   H     H_    0.041991 0.743873 0.091885 0.236141

loop_
_geom_bond_atom_site_label_1
_geom_bond_atom_site_label_2
_ccdc_geom_bond_type
C24   H12   S    
C23   C24   A    
C17   N2    D    
C13   H2    S    
C6    C7    A    
C22   H11   S    
C16   N1    D    
C16   H6    S    
C14   C18   S    
C9    C20   A    
C2    C4    A    
H8    N1    S    
C25   H18   S    
C4    C8    A    
C9    C21   A    
Cu1   N2    S    
C2    C3    A    
C18   O6    A    
C18   O5    A    
C20   C25   S    
C3    C10   A    
Cu2   O8    S    
C6    H9    S    
C11   C13   D    
Cu1   O5    S    
C1    O2    A    
C10   C12   S    
Cu2   O4    S    
C12   O4    A    
C23   H13   S    
Cu1   O1    S    
C19   C21   S    
C25   H17   S    
C8    C21   A    
C3    C7    A    
C13   C15   S    
Cu2   N1    S    
C2    C24   A    
C5    C6    A    
C17   H5    S    
C19   O7    A    
C15   H15   S    
H7    N2    S    
C19   O8    A    
C25   H16   S    
C9    H1    S    
C12   O3    A    
C8    H10   S    
Cu2   O6    S    
C5    C20   A    
Cu1   O7    S    
C16   C17   S    
C1    O1    A    
Cu2   O2    S    
Cu1   Cu2   S    
C14   C15   D    
C7    H14   S    
Cu1   O3    S    
C22   C23   A    
C10   C22   A    
C11   H4    S    
C14   H3    S    
C4    C5    A    
C1    C11   S    
