data_mof_unit_52684.cif
_audit_creation_date              2013-03-05T15:55:53-0500
_audit_creation_method            fapswitch 2.2
_symmetry_space_group_name_H-M    P1
_symmetry_Int_Tables_number       1
_space_group_crystal_system       triclinic
_cell_length_a                    12.328518
_cell_length_b                    13.196368
_cell_length_c                    15.865257
_cell_angle_alpha                 77.796625
_cell_angle_beta                  101.143565
_cell_angle_gamma                 116.744064
_cell_volume                      2238.6552333

loop_
_atom_site_label
_atom_site_type_symbol
_atom_site_description
_atom_site_fract_x
_atom_site_fract_y
_atom_site_fract_z
_atom_type_partial_charge
O1    O     O_R   0.972510 0.318130 0.524770 -0.578081
O2    O     O_R   0.806530 0.359650 0.491510 -0.608810
C1    C     C_R   0.854781 0.286475 0.509280 0.782282
O3    O     O_R   0.082970 0.479240 0.637550 -0.575120
O4    O     O_R   0.916990 0.520750 0.604290 -0.585142
C2    C     C_R   0.999441 0.499717 0.659860 0.814177
Cu1   Cu    Cu3+1 0.098270 0.475420 0.519690 0.961101
Cu2   Cu    Cu3+1 0.901730 0.524580 0.480310 0.938540
O5    O     O_R   0.193470 0.640350 0.508490 -0.571384
O6    O     O_R   0.027490 0.681870 0.475230 -0.587558
O7    O     O_R   0.083010 0.479250 0.395710 -0.576051
O8    O     O_R   0.917030 0.520760 0.362450 -0.587159
C3    C     C_R   0.145191 0.713352 0.487427 0.791970
C4    C     C_R   0.000346 0.500019 0.340142 0.815434
C5    C     C_3   0.953180 0.389626 0.039716 0.315022
C6    C     C_3   0.883360 0.438673 0.966023 0.318651
H1    H     H_    0.866391 0.586188 0.017603 0.176579
C7    C     C_1   0.998098 0.498904 0.749399 -0.141232
C8    C     C_1   0.000058 0.498848 0.250688 -0.144884
C9    C     C_3   0.067200 0.446128 0.990585 -0.262416
C10   C     C_3   0.995849 0.496333 0.916601 0.037956
C11   C     C_3   0.111640 0.554973 0.034874 -0.178489
C12   C     C_3   0.996831 0.496096 0.083576 0.037450
C13   C     C_3   0.040383 0.605017 0.959579 -0.177556
C14   C     C_3   0.925361 0.546199 0.009596 -0.263017
C15   C     C_1   0.996994 0.497863 0.824909 0.050522
C16   C     C_1   0.998869 0.497629 0.175221 0.046680
H2    H     H_    0.077073 0.694354 0.925458 0.164393
H3    H     H_    0.206229 0.603686 0.064281 0.164531
H4    H     H_    0.124392 0.404268 0.982645 0.177978
C17   C     C_R   0.284929 0.009991 0.366909 -0.174955
H5    H     H_    0.103104 0.875706 0.366242 0.152127
H6    H     H_    0.471010 0.202253 0.314010 0.156827
H7    H     H_    0.258533 0.063878 0.313583 0.149859
C18   C     C_R   0.228287 0.833927 0.466899 -0.055338
C19   C     C_R   0.814640 0.089663 0.577828 -0.194925
C20   C     C_R   0.738598 0.974340 0.595177 -0.161077
C21   C     C_R   0.616972 0.930368 0.558567 -0.006237
C22   C     C_R   0.568646 0.004891 0.502953 0.026873
C23   C     C_R   0.652911 0.119252 0.475884 0.069233
C24   C     C_R   0.442331 0.971749 0.470859 0.070028
C25   C     C_R   0.407718 0.043649 0.401912 0.157168
C26   C     C_R   0.495738 0.148163 0.368141 -0.216798
C27   C     C_R   0.616141 0.185960 0.404903 -0.166834
C28   C     C_R   0.348250 0.871896 0.506792 -0.229008
C29   C     C_R   0.195872 0.904244 0.397999 -0.186994
C30   C     C_R   0.773394 0.163221 0.518779 -0.089927
H8    H     H_    0.364585 0.821722 0.566445 0.161194
H9    H     H_    0.906746 0.121343 0.610862 0.158967
H10   H     H_    0.775375 0.918692 0.638051 0.154262
H11   H     H_    0.680668 0.266860 0.374823 0.178418
C31   C     C_R   0.346432 0.329527 0.638562 -0.270146
H12   H     H_    0.170169 0.312528 0.655079 0.126422
H13   H     H_    0.546300 0.295666 0.666644 0.185139
H14   H     H_    0.345891 0.264090 0.693068 0.155035
N1    N     N_R   0.246280 0.438200 0.549540 -0.184239
C32   C     C_R   0.760237 0.645662 0.383569 0.089246
C33   C     C_R   0.663561 0.676697 0.357646 -0.241529
C34   C     C_R   0.559214 0.620786 0.400821 -0.173915
C35   C     C_R   0.550490 0.532809 0.471104 0.002784
C36   C     C_R   0.652380 0.504428 0.495651 0.276463
C37   C     C_R   0.445691 0.473042 0.518532 -0.020427
C38   C     C_R   0.445893 0.387602 0.589717 0.154166
C39   C     C_R   0.545653 0.361044 0.612316 -0.232309
C40   C     C_R   0.646469 0.418142 0.566434 -0.162929
C41   C     C_R   0.340467 0.494948 0.499503 0.076319
C42   C     C_R   0.247124 0.356658 0.617452 0.084038
N2    N     N_R   0.754330 0.561180 0.450980 -0.208520
H15   H     H_    0.331894 0.557698 0.446246 0.121512
H16   H     H_    0.840798 0.689339 0.349581 0.129280
H17   H     H_    0.487364 0.648563 0.378150 0.140973
H18   H     H_    0.669505 0.744288 0.303894 0.162380
H19   H     H_    0.718297 0.392083 0.589537 0.210901
N3    N     N_R   0.757751 0.373406 0.930526 0.145698
O9    O     O_R   0.670779 0.328671 0.980615 -0.320956
O10   O     O_R   0.731591 0.359953 0.849050 -0.361805
C43   C     C_1   0.552706 0.807118 0.573014 0.208747
N4    N     N_1   0.502428 0.708226 0.585711 -0.274662
N5    N     N_R   0.903621 0.270833 0.081386 0.144341
O11   O     O_R   0.870279 0.188533 0.035641 -0.321684
O12   O     O_R   0.892446 0.246232 0.163961 -0.349557

loop_
_geom_bond_atom_site_label_1
_geom_bond_atom_site_label_2
_geom_bond_distance
_ccdc_geom_bond_type
C23   C30   1.416572 A    
C10   C15   1.453297 S    
C6    C10   1.528202 S    
C17   C25   1.404088 A    
C24   C25   1.422703 A    
C7    C15   1.197795 T    
Cu1   Cu2   2.709350 S    
C22   C24   1.431894 A    
C9    H4    1.110156 S    
C43   N4    1.156271 T    
Cu1   O7    1.931430 S    
C20   C21   1.394712 A    
N3    O10   1.300293 A    
C6    N3    1.457606 S    
C19   C20   1.381759 A    
C11   H3    1.110229 S    
C3    C18   1.459503 S    
C21   C22   1.434543 A    
O7    C4    1.301117 A    
C41   H15   1.076681 S    
C5    C6    1.522917 S    
C40   H19   1.064002 S    
C19   C30   1.397900 A    
C35   C37   1.437123 A    
O5    C3    1.302727 A    
C5    N5    1.457336 S    
C17   C29   1.391223 A    
C12   C16   1.453585 S    
C32   H16   1.081581 S    
C8    C16   1.197974 T    
C31   H14   1.083914 S    
C5    C12   1.528390 S    
C34   C35   1.410492 A    
Cu1   N1    2.041934 S    
O3    Cu1   1.928551 S    
C5    C9    1.540786 S    
C2    C7    1.421571 S    
N3    O9    1.300396 A    
C37   C41   1.416614 A    
H6    C26   1.084192 S    
C13   C14   1.557874 S    
O3    C2    1.300210 A    
C22   C23   1.424298 A    
N5    O12   1.300146 A    
C33   C34   1.393273 A    
C31   C38   1.400669 A    
C38   C39   1.388667 A    
C35   C36   1.429171 A    
O1    C1    1.304364 A    
C26   C27   1.383597 A    
C37   C38   1.417689 A    
Cu2   O8    1.928552 S    
C17   H7    1.083917 S    
C31   C42   1.387312 A    
C27   H11   1.080433 S    
O8    C4    1.299907 A    
Cu2   N2    2.029821 S    
C11   C13   1.554954 S    
C25   C26   1.390029 A    
C32   N2    1.358303 A    
C18   C28   1.394379 A    
C28   H8    1.075204 S    
C6    C14   1.540946 S    
Cu1   O5    1.940153 S    
O1    Cu1   1.949329 S    
H5    C29   1.083309 S    
C4    C8    1.421860 S    
O2    Cu2   1.940153 S    
C13   H2    1.110135 S    
C9    C11   1.557778 S    
O6    C3    1.303283 A    
O4    Cu2   1.931430 S    
C21   C43   1.441670 S    
N1    C42   1.354429 A    
H1    C14   1.110168 S    
C39   C40   1.384708 A    
O2    C1    1.304948 A    
C20   H10   1.084808 S    
C36   N2    1.384076 A    
C33   H18   1.082571 S    
C32   C33   1.391427 A    
O4    C2    1.300639 A    
H13   C39   1.084661 S    
N1    C41   1.364446 A    
C1    C30   1.470031 S    
C12   C14   1.545194 S    
H12   C42   1.081806 S    
N5    O11   1.300513 A    
C36   C40   1.406883 A    
C23   C27   1.411142 A    
C9    C10   1.545031 S    
Cu2   O6    1.949329 S    
C10   C13   1.543847 S    
C24   C28   1.403249 A    
C11   C12   1.543789 S    
C18   C29   1.397040 A    
C19   H9    1.083610 S    
C34   H17   1.077822 S    
