data_mof_unit_14559.cif
_audit_creation_date              2012-12-11T16:07:12-0500
_audit_creation_method            fapswitch 2.2
_symmetry_space_group_name_H-M    P1
_symmetry_Int_Tables_number       1
_space_group_crystal_system       triclinic
_cell_length_a                    17.102533
_cell_length_b                    17.121386
_cell_length_c                    17.284401
_cell_angle_alpha                 89.988922
_cell_angle_beta                  90.0037
_cell_angle_gamma                 90.000088
_cell_volume                      5061.2021051

loop_
_atom_site_label
_atom_site_type_symbol
_atom_type_description
_atom_site_fract_x
_atom_site_fract_y
_atom_site_fract_z
_atom_type_partial_charge
C1    C     C_R   0.393688 0.697827 0.607233 -0.151468
C2    C     C_R   0.577212 0.669542 0.646119 -0.124640
C3    C     C_3   0.810571 0.228180 0.639436 0.261279
C4    C     C_3   0.810559 0.771818 0.360545 0.261200
C5    C     C_3   0.245206 0.283005 0.724048 0.270617
C6    C     C_3   0.722848 0.250319 0.279095 0.274134
C7    C     C_3   0.221549 0.804745 0.637726 0.263121
C8    C     C_3   0.720928 0.695586 0.862495 0.263192
C9    C     C_3   0.223078 0.249472 0.220839 0.274216
C10   C     C_3   0.745355 0.217137 0.775991 0.270684
C11   C     C_3   0.310293 0.727674 0.139235 0.261389
C12   C     C_3   0.310680 0.271595 0.860457 0.261190
C13   C     C_R   0.670481 0.422463 0.354489 -0.147699
C14   C     C_3   0.745330 0.782828 0.223986 0.270669
C15   C     C_3   0.222329 0.749868 0.779015 0.273955
C16   C     C_3   0.720897 0.304378 0.137513 0.263211
C17   C     C_3   0.175168 0.102305 0.458647 -0.929546
C18   C     C_3   0.765810 0.851029 0.631144 -0.956264
C19   C     C_3   0.136020 0.749683 0.360793 -0.958137
C20   C     C_3   0.916213 0.197174 0.549999 -0.937508
C21   C     C_3   0.916249 0.802775 0.449958 -0.937036
C22   C     C_3   0.134763 0.252054 0.639935 -0.958609
C23   C     C_3   0.765894 0.149003 0.368888 -0.956251
C24   C     C_R   0.302063 0.604981 0.607949 -0.143786
C25   C     C_3   0.178308 0.899798 0.542091 -0.930044
C26   C     C_3   0.676473 0.601356 0.958364 -0.929636
C27   C     C_3   0.266618 0.350446 0.130905 -0.956148
C28   C     C_3   0.635123 0.248413 0.860259 -0.958441
C29   C     C_3   0.415617 0.696211 0.049596 -0.937064
C30   C     C_3   0.416478 0.302380 0.949795 -0.937485
C31   C     C_3   0.635116 0.751464 0.139720 -0.958445
C32   C     C_3   0.264283 0.647832 0.868530 -0.956552
C33   C     C_3   0.676307 0.398524 0.041624 -0.929581
C34   C     C_R   0.605546 0.698098 0.393092 -0.133875
C35   C     C_R   0.422103 0.328784 0.644941 -0.138325
C36   C     C_R   0.330178 0.577753 0.353987 -0.130786
C37   C     C_R   0.698196 0.393664 0.606473 -0.152482
C38   C     C_R   0.893680 0.197842 0.107195 -0.151101
C39   C     C_R   0.077228 0.830448 0.853889 -0.125162
C40   C     C_R   0.170456 0.077524 0.145533 -0.148029
C41   C     C_R   0.577216 0.330443 0.353887 -0.124599
C42   C     C_R   0.802048 0.894987 0.892089 -0.144295
C43   C     C_R   0.105549 0.801898 0.106913 -0.134378
C44   C     C_R   0.922116 0.171189 0.855039 -0.138526
C45   C     C_R   0.830146 0.922207 0.145986 -0.131301
C46   C     C_R   0.198190 0.106326 0.893516 -0.152647
C47   C     C_R   0.893681 0.802156 0.892806 -0.151034
C48   C     C_R   0.077204 0.169553 0.146111 -0.124368
C49   C     C_R   0.170527 0.922445 0.854528 -0.146996
C50   C     C_R   0.802051 0.105008 0.107912 -0.144265
C51   C     C_R   0.105546 0.198095 0.893088 -0.133677
C52   C     C_R   0.670477 0.577525 0.645517 -0.147650
C53   C     C_R   0.922104 0.828792 0.144949 -0.138460
C54   C     C_R   0.830161 0.077775 0.853998 -0.131257
C55   C     C_R   0.198202 0.893652 0.106460 -0.152060
C56   C     C_3   0.265109 0.267245 0.334163 0.062441
C57   C     C_3   0.677984 0.677381 0.748124 0.069119
C58   C     C_3   0.322704 0.679150 0.252151 0.069495
C59   C     C_3   0.733695 0.265284 0.664253 0.061782
C60   C     C_3   0.733683 0.734707 0.335735 0.061838
C61   C     C_3   0.322640 0.320729 0.747761 0.069290
C62   C     C_3   0.677986 0.322595 0.251887 0.069139
C63   C     C_R   0.302048 0.394986 0.392087 -0.144554
C64   C     C_3   0.265151 0.732684 0.665904 0.062495
C65   C     C_3   0.765114 0.767239 0.834178 0.062472
C66   C     C_3   0.177937 0.177403 0.248129 0.069046
C67   C     C_3   0.822666 0.179219 0.752197 0.069347
C68   C     C_3   0.233712 0.765248 0.164247 0.061965
C69   C     C_3   0.233681 0.234690 0.835724 0.061734
C70   C     C_3   0.822642 0.820753 0.247774 0.069366
C71   C     C_3   0.178077 0.822576 0.751950 0.069195
C72   C     C_3   0.765120 0.232748 0.165834 0.062490
C73   C     C_R   0.317859 0.680893 0.626419 0.063475
C74   C     C_R   0.605547 0.301902 0.606909 -0.133878
C75   C     C_R   0.636013 0.364535 0.310982 0.051714
C76   C     C_R   0.636008 0.635444 0.689026 0.051662
C77   C     C_R   0.317831 0.319056 0.373649 0.063486
C78   C     C_R   0.681713 0.317662 0.624736 0.060859
C79   C     C_R   0.363921 0.637221 0.311701 0.053116
C80   C     C_R   0.363841 0.362664 0.688217 0.053149
C81   C     C_R   0.681708 0.682337 0.375265 0.060845
C82   C     C_R   0.817835 0.180938 0.126350 0.063508
C83   C     C_R   0.136087 0.864503 0.811034 0.051575
C84   C     C_R   0.135971 0.135443 0.189042 0.051800
C85   C     C_R   0.422140 0.671152 0.355012 -0.139002
C86   C     C_R   0.817832 0.819056 0.873656 0.063502
C87   C     C_R   0.181722 0.817645 0.124732 0.060970
C88   C     C_R   0.863870 0.137288 0.811748 0.053123
C89   C     C_R   0.863847 0.862682 0.188228 0.053117
C90   C     C_R   0.181704 0.182326 0.875251 0.060816
C91   C     C_3   0.750763 0.648503 0.792536 -0.219411
C92   C     C_3   0.192512 0.296063 0.289801 -0.214031
C93   C     C_3   0.706958 0.188037 0.701611 -0.215276
C94   C     C_3   0.349760 0.756123 0.214081 -0.218147
C95   C     C_3   0.285722 0.350081 0.823685 -0.239431
C96   C     C_R   0.330151 0.422205 0.645988 -0.131480
C97   C     C_3   0.771196 0.705894 0.260062 -0.232758
C98   C     C_3   0.295466 0.777636 0.736895 -0.236371
C99   C     C_3   0.646925 0.277209 0.181272 -0.243828
C100  C     C_3   0.750739 0.351488 0.207454 -0.219484
C101  C     C_3   0.191919 0.704144 0.709406 -0.214180
C102  C     C_3   0.706939 0.811943 0.298359 -0.215305
C103  C     C_3   0.349433 0.243344 0.785193 -0.218675
C104  C     C_3   0.285064 0.649588 0.176652 -0.240493
C105  C     C_3   0.771215 0.294080 0.739934 -0.232832
C106  C     C_3   0.295603 0.221403 0.263803 -0.236707
C107  C     C_R   0.698193 0.606334 0.393527 -0.152444
C108  C     C_3   0.646930 0.722739 0.818756 -0.243859
C109  C     C_3   0.250484 0.148425 0.292841 -0.219662
C110  C     C_3   0.692292 0.795958 0.790114 -0.214011
C111  C     C_3   0.206800 0.688293 0.202067 -0.215223
C112  C     C_3   0.849539 0.256486 0.714583 -0.218537
C113  C     C_3   0.785513 0.850179 0.323570 -0.239774
C114  C     C_3   0.270986 0.205951 0.759928 -0.232639
C115  C     C_3   0.795563 0.278298 0.236403 -0.236650
C116  C     C_3   0.147145 0.777790 0.680905 -0.243733
C117  C     C_3   0.251276 0.851262 0.708094 -0.219435
C118  C     C_R   0.393680 0.302157 0.392802 -0.150933
C119  C     C_3   0.692324 0.204014 0.209920 -0.214079
C120  C     C_3   0.207019 0.312053 0.798551 -0.215310
C121  C     C_3   0.849521 0.743497 0.285407 -0.218522
C122  C     C_3   0.785530 0.149808 0.676393 -0.239716
C123  C     C_3   0.271729 0.794198 0.239631 -0.233249
C124  C     C_3   0.795551 0.721716 0.763593 -0.236640
C125  C     C_3   0.146823 0.223088 0.318530 -0.243646
C126  C     C_3   0.220597 0.195830 0.362568 0.263258
C127  C     C_3   0.722811 0.749680 0.720922 0.274101
C128  C     C_3   0.245688 0.717533 0.276139 0.270841
H1    H     H_    0.421078 0.754770 0.606909 0.100219
H2    H     H_    0.542923 0.720197 0.661456 0.104594
H3    H     H_    0.613403 0.613915 0.949174 0.251862
H4    H     H_    0.238607 0.236004 0.102229 0.164637
H5    H     H_    0.258147 0.371361 0.070702 0.250155
H6    H     H_    0.330053 0.340919 0.141135 0.254249
H7    H     H_    0.244702 0.396431 0.170676 0.256568
H8    H     H_    0.748809 0.225821 0.895864 0.165581
H9    H     H_    0.611360 0.236459 0.918852 0.253651
H10   H     H_    0.593226 0.225016 0.816983 0.254503
H11   H     H_    0.640876 0.312617 0.852748 0.256468
H12   H     H_    0.301901 0.726448 0.019585 0.167516
H13   H     H_    0.721446 0.456630 0.339852 0.101393
H14   H     H_    0.438020 0.710569 0.990999 0.248225
H15   H     H_    0.406910 0.632018 0.053565 0.251174
H16   H     H_    0.459853 0.714936 0.092826 0.263323
H17   H     H_    0.303084 0.271293 0.980185 0.167544
H18   H     H_    0.439532 0.287064 0.007907 0.248414
H19   H     H_    0.407425 0.366591 0.947066 0.251081
H20   H     H_    0.460365 0.284677 0.905810 0.263599
H21   H     H_    0.748771 0.774163 0.104109 0.165575
H22   H     H_    0.611324 0.763413 0.081135 0.253480
H23   H     H_    0.593212 0.774806 0.183013 0.254472
H24   H     H_    0.245469 0.576832 0.607308 0.091808
H25   H     H_    0.640934 0.687265 0.147211 0.256470
H26   H     H_    0.236986 0.762275 0.897844 0.164785
H27   H     H_    0.255303 0.626640 0.928567 0.250025
H28   H     H_    0.327856 0.656870 0.858718 0.254288
H29   H     H_    0.242191 0.602292 0.828349 0.256675
H30   H     H_    0.712614 0.285081 0.019481 0.166123
H31   H     H_    0.685114 0.416122 0.980434 0.253504
H32   H     H_    0.694514 0.447675 0.079476 0.254856
H33   H     H_    0.613252 0.385860 0.050758 0.251849
H34   H     H_    0.577445 0.754653 0.393953 0.087731
H35   H     H_    0.456247 0.277754 0.659185 0.098854
H36   H     H_    0.279483 0.543609 0.338407 0.107547
H37   H     H_    0.755097 0.421238 0.606144 0.099992
H38   H     H_    0.921080 0.254780 0.106858 0.099975
H39   H     H_    0.042933 0.779799 0.838541 0.104818
H40   H     H_    0.221418 0.043355 0.160188 0.101445
H41   H     H_    0.542925 0.279788 0.338552 0.104524
H42   H     H_    0.745451 0.923130 0.892729 0.091891
H43   H     H_    0.077450 0.745342 0.106043 0.087795
H44   H     H_    0.956259 0.222216 0.840783 0.098922
H45   H     H_    0.779457 0.956356 0.161564 0.107740
H46   H     H_    0.255090 0.078752 0.893841 0.100029
H47   H     H_    0.921085 0.745220 0.893141 0.100043
H48   H     H_    0.042917 0.220212 0.161434 0.104411
H49   H     H_    0.221504 0.956606 0.839924 0.101259
H50   H     H_    0.745455 0.076863 0.107271 0.091871
H51   H     H_    0.077447 0.254651 0.893948 0.087696
H52   H     H_    0.721444 0.543358 0.660155 0.101402
H53   H     H_    0.956245 0.777762 0.159201 0.098879
H54   H     H_    0.779475 0.043622 0.838410 0.107758
H55   H     H_    0.255103 0.921226 0.106124 0.099870
H56   H     H_    0.772762 0.587533 0.794247 0.123390
H57   H     H_    0.169888 0.356794 0.287882 0.122262
H58   H     H_    0.648189 0.160917 0.697178 0.120975
H59   H     H_    0.408978 0.782373 0.217953 0.123143
H60   H     H_    0.294178 0.408977 0.849180 0.135465
H61   H     H_    0.763450 0.647120 0.233974 0.129585
H62   H     H_    0.355969 0.775550 0.760144 0.128990
H63   H     H_    0.245448 0.423125 0.392728 0.091907
H64   H     H_    0.586068 0.279229 0.159042 0.130181
H65   H     H_    0.772713 0.412466 0.205723 0.123389
H66   H     H_    0.168721 0.643612 0.710634 0.122295
H67   H     H_    0.648169 0.839060 0.302783 0.120968
H68   H     H_    0.408436 0.216696 0.780838 0.123145
H69   H     H_    0.292954 0.590483 0.151457 0.135252
H70   H     H_    0.763469 0.352847 0.766036 0.129606
H71   H     H_    0.356308 0.222727 0.241029 0.128832
H72   H     H_    0.586081 0.720690 0.840997 0.130217
H73   H     H_    0.272259 0.087383 0.294800 0.123451
H74   H     H_    0.577448 0.245346 0.606042 0.087717
H75   H     H_    0.669461 0.856619 0.788439 0.122301
H76   H     H_    0.147883 0.661432 0.198028 0.120941
H77   H     H_    0.908607 0.283016 0.718798 0.123182
H78   H     H_    0.793802 0.909141 0.348969 0.135328
H79   H     H_    0.263068 0.147244 0.733743 0.129651
H80   H     H_    0.856206 0.276729 0.259332 0.128862
H81   H     H_    0.086433 0.780327 0.658339 0.130280
H82   H     H_    0.273666 0.912099 0.706807 0.123307
H83   H     H_    0.669514 0.143346 0.211612 0.122276
H84   H     H_    0.148314 0.339281 0.803143 0.120995
H85   H     H_    0.456274 0.722182 0.340741 0.099048
H86   H     H_    0.908589 0.716967 0.281195 0.123058
H87   H     H_    0.793818 0.090853 0.650982 0.135337
H88   H     H_    0.264384 0.853113 0.265517 0.129505
H89   H     H_    0.856187 0.723312 0.740654 0.128935
H90   H     H_    0.085899 0.221317 0.340593 0.130131
H91   H     H_    0.212298 0.215521 0.480538 0.166068
H92   H     H_    0.183913 0.084681 0.519839 0.253795
H93   H     H_    0.192895 0.052986 0.420792 0.254874
H94   H     H_    0.112210 0.115497 0.449586 0.251754
H95   H     H_    0.738045 0.736593 0.602234 0.164708
H96   H     H_    0.279462 0.456350 0.661572 0.107851
H97   H     H_    0.757186 0.872034 0.570993 0.250097
H98   H     H_    0.829289 0.841672 0.641257 0.254252
H99   H     H_    0.743815 0.896862 0.671045 0.256634
H100  H     H_    0.249749 0.726648 0.395974 0.165536
H101  H     H_    0.112431 0.738003 0.419507 0.253534
H102  H     H_    0.093837 0.726390 0.317737 0.254539
H103  H     H_    0.142079 0.813835 0.353091 0.256437
H104  H     H_    0.802731 0.228055 0.519728 0.167532
H105  H     H_    0.939110 0.212266 0.491771 0.248347
H106  H     H_    0.907224 0.132967 0.553015 0.251109
H107  H     H_    0.755092 0.578758 0.393854 0.099978
H108  H     H_    0.960197 0.215101 0.593806 0.263589
H109  H     H_    0.802732 0.772055 0.480251 0.167505
H110  H     H_    0.939083 0.787786 0.508239 0.248330
H111  H     H_    0.907358 0.866987 0.446787 0.251076
H112  H     H_    0.960243 0.784677 0.406232 0.263347
H113  H     H_    0.248407 0.274518 0.604158 0.165589
H114  H     H_    0.110919 0.264113 0.581393 0.253712
H115  H     H_    0.092988 0.275469 0.683310 0.254487
H116  H     H_    0.140425 0.187835 0.647366 0.256502
H117  H     H_    0.738114 0.263442 0.397774 0.164671
H118  H     H_    0.421084 0.245221 0.393140 0.099888
H119  H     H_    0.757273 0.128001 0.429040 0.250122
H120  H     H_    0.829371 0.158376 0.358785 0.254269
H121  H     H_    0.743912 0.103163 0.328986 0.256629
H122  H     H_    0.213756 0.786168 0.519543 0.166250
H123  H     H_    0.187454 0.917514 0.480982 0.253386
H124  H     H_    0.196884 0.948633 0.580168 0.254871
H125  H     H_    0.115108 0.887700 0.551008 0.251993
H126  H     H_    0.712617 0.714846 0.980531 0.166146
H127  H     H_    0.685264 0.583791 0.019567 0.253481
H128  H     H_    0.694789 0.552226 0.920541 0.254852
N1    N     N_R   0.424590 0.632770 0.578330 -0.037096
N2    N     N_R   0.575410 0.632770 0.578330 -0.043314
N3    N     N_R   0.632770 0.424590 0.421670 -0.041988
N4    N     N_R   0.367230 0.575410 0.578330 -0.036172
N5    N     N_R   0.575410 0.632770 0.421670 -0.036270
N6    N     N_R   0.424590 0.367230 0.578330 -0.042758
N7    N     N_R   0.367230 0.575410 0.421670 -0.043660
N8    N     N_R   0.632770 0.424590 0.578330 -0.035789
N9    N     N_R   0.924590 0.132770 0.078330 -0.037105
N10   N     N_R   0.075410 0.867230 0.921670 -0.043343
N11   N     N_R   0.132770 0.075410 0.078330 -0.041991
N12   N     N_R   0.575410 0.367230 0.421670 -0.043325
N13   N     N_R   0.867230 0.924590 0.921670 -0.036129
N14   N     N_R   0.075410 0.867230 0.078330 -0.036245
N15   N     N_R   0.924590 0.132770 0.921670 -0.042760
N16   N     N_R   0.867230 0.924590 0.078330 -0.043657
N17   N     N_R   0.132770 0.075410 0.921670 -0.035799
N18   N     N_R   0.924590 0.867230 0.921670 -0.037085
N19   N     N_R   0.075410 0.132770 0.078330 -0.043313
N20   N     N_R   0.132770 0.924590 0.921670 -0.042009
N21   N     N_R   0.867230 0.075410 0.078330 -0.036122
N22   N     N_R   0.075410 0.132770 0.921670 -0.036320
N23   N     N_R   0.632770 0.575410 0.578330 -0.041994
N24   N     N_R   0.924590 0.867230 0.078330 -0.042735
N25   N     N_R   0.867230 0.075410 0.921670 -0.043662
N26   N     N_R   0.132770 0.924590 0.078330 -0.035803
N27   N     N_2   0.222090 0.170449 0.442292 -0.115730
N28   N     N_2   0.723424 0.778802 0.642199 -0.112981
N29   N     N_2   0.211192 0.711967 0.352518 -0.113565
N30   N     N_2   0.843145 0.237506 0.562841 -0.116187
N31   N     N_2   0.843132 0.762518 0.437148 -0.116235
N32   N     N_2   0.210236 0.289228 0.647929 -0.113578
N33   N     N_2   0.723492 0.221220 0.357823 -0.112995
N34   N     N_R   0.367230 0.424590 0.421670 -0.036108
N35   N     N_2   0.223990 0.830762 0.558223 -0.115729
N36   N     N_2   0.722748 0.669975 0.942142 -0.115723
N37   N     N_2   0.223999 0.278367 0.142038 -0.112959
N38   N     N_2   0.710524 0.211106 0.852186 -0.113563
N39   N     N_2   0.342491 0.736445 0.062420 -0.116195
N40   N     N_2   0.343413 0.262040 0.936960 -0.116223
N41   N     N_2   0.710483 0.788840 0.147792 -0.113578
N42   N     N_2   0.222353 0.720343 0.857595 -0.113031
N43   N     N_2   0.722680 0.329975 0.057863 -0.115730
N44   N     N_R   0.575410 0.367230 0.578330 -0.036306
N45   N     N_R   0.424590 0.632770 0.421670 -0.042748
N46   N     N_R   0.367230 0.424590 0.578330 -0.043673
N47   N     N_R   0.632770 0.575410 0.421670 -0.035785
N48   N     N_R   0.424590 0.367230 0.421670 -0.037091
Ni1   Ni    Ni4+2 0.500000 0.631570 0.500000 0.210991
Ni2   Ni    Ni4+2 0.500000 0.368430 0.500000 0.210977
Ni3   Ni    Ni4+2 0.631570 0.500000 0.500000 0.209061
Ni4   Ni    Ni4+2 0.368430 0.500000 0.500000 0.211925
Ni5   Ni    Ni4+2 0.000000 0.131570 0.000000 0.210988
Ni6   Ni    Ni4+2 0.000000 0.868430 0.000000 0.210985
Ni7   Ni    Ni4+2 0.131570 0.000000 0.000000 0.209076
Ni8   Ni    Ni4+2 0.868430 0.000000 0.000000 0.211914

loop_
_geom_bond_atom_site_label_1
_geom_bond_atom_site_label_2
_ccdc_geom_bond_type
C85   N45   A    
C12   C69   S    
C98   H62   S    
N5    N47   A    
C16   N43   S    
N11   N19   A    
N4    Ni4   S    
C14   N41   S    
N7    N45   A    
C57   C76   S    
C26   N36   S    
C117  H82   S    
C50   H50   S    
C1    H1    S    
C60   C102  S    
C14   C102  S    
C61   C80   S    
C19   N29   S    
N46   Ni4   S    
C35   C80   A    
C122  H87   S    
C9    C92   S    
C23   H120  S    
C42   H42   S    
C20   H108  S    
C46   H46   S    
C42   C86   A    
C34   C81   A    
C56   C126  S    
C123  H88   S    
C100  C115  S    
N20   Ni7   S    
H126  N36   S    
C22   H115  S    
C95   H60   S    
N22   Ni5   S    
C49   H49   S    
C47   C86   A    
C4    C113  S    
C7    C116  S    
C31   H22   S    
N3    Ni3   S    
H117  N33   S    
C29   H16   S    
C41   H41   S    
C36   C79   A    
C35   H35   S    
C33   H33   S    
C44   H44   S    
C116  H81   S    
C45   H45   S    
N23   Ni3   S    
C50   N21   A    
N45   Ni1   S    
C3    C112  S    
C126  N27   S    
C19   H101  S    
C56   C106  S    
C107  N47   A    
C58   C79   S    
C124  C127  S    
N14   Ni6   S    
C105  C112  S    
C25   N35   S    
C53   C89   A    
C62   C75   S    
N9    Ni5   S    
C103  H68   S    
C79   C85   A    
N11   Ni7   S    
C101  H66   S    
H95   N28   S    
C25   H125  S    
N6    N46   A    
C27   H6    S    
C28   H9    S    
C128  N29   S    
C118  H118  S    
C37   C78   A    
C24   N4    A    
N34   Ni4   S    
N17   N22   A    
C5    N32   S    
C54   C88   A    
C25   H123  S    
C6    C62   S    
C65   C110  S    
C17   H93   S    
C18   H99   S    
C56   C77   S    
C99   C119  S    
C62   C99   S    
C33   N43   S    
C40   N11   A    
C67   C112  S    
C120  H84   S    
C53   N24   A    
C58   C128  S    
C7    C117  S    
C74   N44   A    
N25   Ni8   S    
C28   N38   S    
N9    N21   A    
N26   Ni7   S    
N16   Ni8   S    
C30   H19   S    
C11   N39   S    
C72   C115  S    
N13   N18   A    
C35   N6    A    
N2    Ni1   S    
C112  H77   S    
C53   H53   S    
C26   H127  S    
C51   C90   A    
C99   H64   S    
C114  H79   S    
C65   C124  S    
C97   C121  S    
N3    N12   A    
C32   H28   S    
C13   C75   A    
C64   C73   S    
C12   C95   S    
C31   N41   S    
N17   Ni7   S    
C33   H32   S    
C125  H90   S    
N19   Ni5   S    
C97   H61   S    
C8    C65   S    
N16   N24   A    
C115  H80   S    
N5    Ni1   S    
C28   H11   S    
C96   N46   A    
C27   N37   S    
C51   H51   S    
C59   C78   S    
C71   C83   S    
C70   C113  S    
C4    N31   S    
C71   C117  S    
C36   N7    A    
C103  C114  S    
C92   C125  S    
C77   C118  A    
C43   H43   S    
C16   C100  S    
C37   H37   S    
N14   N26   A    
C127  N28   S    
C18   H97   S    
C31   H23   S    
C60   C81   S    
C4    C60   S    
C5    C61   S    
C15   C101  S    
N8    Ni3   S    
C22   N32   S    
C52   N23   A    
C21   H111  S    
C70   C89   S    
C58   C104  S    
C6    C119  S    
C11   C68   S    
C32   H29   S    
C124  H89   S    
C34   N5    A    
N8    N44   A    
H104  N30   S    
C23   N33   S    
C57   C127  S    
C119  H83   S    
N1    N4    A    
C27   H7    S    
C13   N3    A    
C37   N8    A    
C68   C123  S    
H21   N41   S    
C108  C110  S    
C71   C116  S    
C55   C87   A    
N10   Ni6   S    
N18   Ni6   S    
C109  C126  S    
C57   C108  S    
H26   N42   S    
C20   H105  S    
C111  C128  S    
C68   C87   S    
C91   H56   S    
N1    Ni1   S    
C47   H47   S    
C26   H3    S    
C48   H48   S    
C106  C109  S    
C45   N16   A    
C81   C107  A    
C3    N30   S    
C40   C84   A    
C16   C72   S    
C102  H67   S    
C29   N39   S    
H12   N39   S    
C22   H116  S    
C47   N18   A    
C30   N40   S    
C65   C86   S    
C100  H65   S    
C67   C88   S    
C59   C105  S    
C14   C97   S    
C61   C103  S    
C38   N9    A    
N7    Ni4   S    
C8    N36   S    
C24   C73   A    
N15   N25   A    
N24   Ni6   S    
C29   H15   S    
H4    N37   S    
C24   H24   S    
C7    N35   S    
H100  N29   S    
N10   N20   A    
C63   N34   A    
C11   C104  S    
C13   H13   S    
C45   C89   A    
C10   N38   S    
N13   Ni8   S    
C94   C123  S    
C54   N25   A    
C64   C98   S    
C38   C82   A    
C14   C70   S    
C9    N37   S    
C1    N1    A    
C46   N17   A    
C5    C120  S    
C27   H5    S    
C28   H10   S    
C93   C122  S    
C12   C103  S    
C60   C97   S    
C74   H74   S    
C10   C93   S    
C34   H34   S    
C110  H75   S    
C104  C111  S    
C41   C75   A    
C8    C91   S    
N6    Ni2   S    
C17   H92   S    
C44   N15   A    
C62   C100  S    
C11   C94   S    
C105  H70   S    
C125  C126  S    
N34   N48   A    
C15   C98   S    
H109  N31   S    
C22   H114  S    
C2    C76   A    
C50   C82   A    
N44   Ni2   S    
C38   H38   S    
C57   C91   S    
H17   N40   S    
C111  H76   S    
N12   Ni2   S    
C61   C95   S    
C30   H20   S    
C46   C90   A    
C95   C120  S    
C15   C71   S    
C69   C120  S    
C1    C73   A    
C121  H86   S    
C49   C83   A    
C109  H73   S    
C39   C83   A    
C23   H121  S    
C102  C113  S    
C26   H128  S    
C32   N42   S    
C63   H63   S    
C2    H2    S    
C4    C121  S    
C66   C109  S    
C19   H102  S    
C6    C115  S    
C17   N27   S    
C18   N28   S    
C74   C78   A    
C36   H36   S    
C101  C116  S    
C55   H55   S    
C41   N12   A    
C33   H31   S    
C12   N40   S    
H91   N27   S    
C5    C114  S    
C104  H69   S    
C39   N10   A    
C10   C67   S    
N15   Ni5   S    
C25   H124  S    
C9    C66   S    
C43   N14   A    
C17   H94   S    
C18   H98   S    
C15   N42   S    
C96   H96   S    
C55   N26   A    
C54   H54   S    
C80   C96   A    
C3    C122  S    
C110  C127  S    
C21   H110  S    
C23   H119  S    
C8    C108  S    
C31   H25   S    
C30   H18   S    
C64   C101  S    
H30   N43   S    
C69   C114  S    
C94   H59   S    
C49   N20   A    
C92   H57   S    
N47   Ni3   S    
C9    C106  S    
H122  N35   S    
C48   C84   A    
C51   N22   A    
C68   C111  S    
C108  H72   S    
C52   H52   S    
C85   H85   S    
C32   H27   S    
C118  N48   A    
C20   N30   S    
C21   N31   S    
H8    N38   S    
C2    N2    A    
C20   H106  S    
C91   C124  S    
C52   C76   A    
C69   C90   S    
C67   C122  S    
C98   C117  S    
C63   C77   A    
C107  H107  S    
N21   Ni8   S    
C6    N33   S    
C16   C99   S    
C66   C125  S    
C43   C87   A    
C113  H78   S    
C42   N13   A    
C58   C94   S    
C93   H58   S    
C70   C121  S    
C123  C128  S    
C29   H14   S    
C72   C119  S    
N48   Ni2   S    
H113  N32   S    
C39   H39   S    
C7    C64   S    
C40   H40   S    
C66   C84   S    
C48   N19   A    
C56   C92   S    
C21   H112  S    
N2    N23   A    
C10   C105  S    
C59   C93   S    
C44   C88   A    
C19   H103  S    
C72   C82   S    
C106  H71   S    
C3    C59   S    
