data_mof_unit_16199.cif
_audit_creation_date              2012-10-26T19:50:04-0400
_audit_creation_method            fapswitch 2.2
_symmetry_space_group_name_H-M    P1
_symmetry_Int_Tables_number       1
_space_group_crystal_system       triclinic
_cell_length_a                    15.135802
_cell_length_b                    13.897017
_cell_length_c                    10.841549
_cell_angle_alpha                 89.931378
_cell_angle_beta                  90.698446
_cell_angle_gamma                 89.498608
_cell_volume                      2280.17981064

loop_
_atom_site_label
_atom_site_type_symbol
_atom_type_description
_atom_site_fract_x
_atom_site_fract_y
_atom_site_fract_z
_atom_type_partial_charge
C1    C     C_R   0.329806 0.500178 0.500425 0.554837
C2    C     C_R   0.950852 0.498369 0.504763 0.043056
C3    C     C_R   0.555885 0.106314 0.579340 -0.134444
C4    C     C_R   0.444524 0.107436 0.420382 -0.134325
C5    C     C_R   0.555457 0.207793 0.577981 0.105089
C6    C     C_R   0.444757 0.208894 0.421763 0.104422
C7    C     C_R   0.500219 0.054405 0.499895 0.024779
C8    C     C_R   0.420559 0.893655 0.504827 0.195060
C9    C     C_R   0.579805 0.891966 0.494796 0.193612
C10   C     C_R   0.422342 0.792167 0.502505 0.072069
C11   C     C_R   0.577868 0.790427 0.496917 0.034018
C12   C     C_R   0.669903 0.499625 0.500545 0.545639
C13   C     C_R   0.500214 0.945635 0.499931 0.024292
C14   C     C_R   0.496602 0.500313 0.262454 0.549086
C15   C     C_R   0.495375 0.500245 0.737356 0.549395
C16   C     C_R   0.328979 0.535169 0.125276 -0.022602
C17   C     C_R   0.327430 0.534026 0.871757 -0.041893
C18   C     C_R   0.248977 0.517211 0.063112 -0.024547
C19   C     C_R   0.248131 0.516686 0.933747 -0.034937
C20   C     C_R   0.409127 0.516582 0.933730 -0.016174
C21   C     C_R   0.409756 0.516910 0.064383 -0.005820
C22   C     C_R   0.491038 0.501875 0.128660 0.017694
C23   C     C_R   0.233094 0.500096 0.502378 0.024182
C24   C     C_R   0.490114 0.501632 0.871078 0.013539
C25   C     C_R   0.568942 0.484773 0.064594 -0.144337
C26   C     C_R   0.568501 0.484781 0.936973 -0.134286
C27   C     C_R   0.093420 0.585660 0.489148 -0.084890
C28   C     C_R   0.903773 0.574522 0.559058 -0.105326
C29   C     C_R   0.185150 0.586357 0.489509 -0.092557
C30   C     C_R   0.811988 0.575289 0.556531 -0.126335
C31   C     C_3   0.316116 0.953460 0.632380 -0.012175
C32   C     C_3   0.231948 0.013775 0.637601 -0.360026
C33   C     C_3   0.683702 0.950506 0.366733 -0.011751
C34   C     C_R   0.766094 0.498860 0.502339 0.023278
C35   C     C_3   0.767767 0.009390 0.361194 -0.361150
C36   C     C_1   0.325949 0.609379 0.217857 0.219174
C37   C     C_1   0.322597 0.607050 0.777507 0.219314
C38   C     C_1   0.167038 0.515310 0.131018 0.221459
C39   C     C_1   0.165070 0.515153 0.865650 0.210785
C40   C     C_1   0.615095 0.256452 0.660725 0.256824
C41   C     C_1   0.385401 0.258661 0.338354 0.251892
C42   C     C_R   0.187864 0.413299 0.517765 -0.108617
C43   C     C_R   0.812608 0.421852 0.450047 -0.118993
C44   C     C_R   0.096103 0.412794 0.519708 -0.089658
C45   C     C_R   0.904445 0.422115 0.449954 -0.107227
C46   C     C_R   0.048038 0.498903 0.504516 0.060907
Cu1   Cu    Cu3+1 0.500000 0.596430 0.500000 0.976113
Cu2   Cu    Cu3+1 0.500000 0.403570 0.500000 0.985396
H1    H     H_    0.630668 0.471956 0.113933 0.118390
H2    H     H_    0.777953 0.362564 0.407038 0.124087
H3    H     H_    0.062923 0.345138 0.534556 0.107071
H4    H     H_    0.938964 0.363394 0.405380 0.114106
H5    H     H_    0.599176 0.068011 0.643267 0.146110
H6    H     H_    0.401407 0.070009 0.356290 0.148500
H7    H     H_    0.368519 0.991717 0.685790 0.135674
H8    H     H_    0.303356 0.882532 0.676364 0.151789
H9    H     H_    0.177752 0.977113 0.586723 0.164465
H10   H     H_    0.212192 0.023817 0.735081 0.106488
H11   H     H_    0.243130 0.085461 0.595368 0.159518
H12   H     H_    0.629954 0.472100 0.889046 0.139721
H13   H     H_    0.631032 0.990026 0.314038 0.136876
H14   H     H_    0.696318 0.879601 0.322149 0.130176
H15   H     H_    0.822235 0.971495 0.411365 0.162597
H16   H     H_    0.787082 0.019680 0.263609 0.103052
H17   H     H_    0.756671 0.081016 0.403999 0.160707
H18   H     H_    0.360272 0.755029 0.503482 0.182335
H19   H     H_    0.639963 0.751884 0.494658 0.148848
H20   H     H_    0.058142 0.652983 0.475323 0.108836
H21   H     H_    0.937763 0.633113 0.604465 0.119169
H22   H     H_    0.218187 0.654492 0.479008 0.155142
H23   H     H_    0.776887 0.634780 0.598703 0.123714
H24   H     H_    0.223262 0.345767 0.529455 0.132320
N1    N     N_R   0.500000 0.258690 0.500000 -0.252779
N2    N     N_R   0.500000 0.741330 0.500000 -0.278048
N3    N     N_1   0.322449 0.672337 0.287178 -0.299643
N4    N     N_1   0.316847 0.669155 0.706877 -0.325031
N5    N     N_1   0.101658 0.513702 0.185192 -0.289506
N6    N     N_1   0.098739 0.514001 0.811480 -0.292579
N7    N     N_1   0.663391 0.294896 0.727581 -0.310942
N8    N     N_1   0.337384 0.298023 0.270964 -0.304717
O1    O     O_R   0.371460 0.581430 0.500010 -0.487252
O2    O     O_3   0.660268 0.937930 0.491254 -0.575183
O3    O     O_R   0.628540 0.581430 0.499990 -0.527062
O4    O     O_R   0.371470 0.418560 0.500010 -0.509309
O5    O     O_R   0.628530 0.418560 0.499990 -0.498091
O6    O     O_R   0.500000 0.581450 0.319650 -0.486494
O7    O     O_R   0.500000 0.581450 0.680350 -0.485538
O8    O     O_R   0.500010 0.418580 0.319650 -0.495104
O9    O     O_R   0.499990 0.418580 0.680350 -0.493718
O10   O     O_3   0.340140 0.941261 0.507994 -0.572537

loop_
_geom_bond_atom_site_label_1
_geom_bond_atom_site_label_2
_ccdc_geom_bond_type
C8    C13   A    
C27   C29   A    
C10   N2    A    
C28   H21   S    
C32   H10   S    
C41   N8    T    
C30   H23   S    
C2    C46   S    
C1    O4    A    
C16   C21   A    
C23   C42   A    
C12   O5    A    
C23   C29   A    
C24   C26   A    
C3    C7    A    
C35   H17   S    
C1    O1    A    
C17   C20   A    
C18   C19   A    
C9    C13   A    
C27   H20   S    
C17   C19   A    
C20   C24   A    
C44   C46   A    
C33   H14   S    
C22   C25   A    
Cu2   O8    S    
C35   H16   S    
Cu1   O3    S    
C31   H8    S    
C33   O2    S    
C9    O2    S    
C21   C22   A    
C42   C44   A    
C32   H9    S    
C4    C7    A    
C11   H19   S    
C10   H18   S    
C2    C45   A    
C30   C34   A    
C39   N6    T    
C14   O6    A    
C4    C6    A    
C45   H4    S    
C25   C26   A    
C6    C41   S    
Cu2   O4    S    
C12   O3    A    
Cu1   O7    S    
Cu1   O6    S    
C36   N3    T    
C15   O9    A    
C9    C11   A    
Cu1   Cu2   S    
C31   O10   S    
C42   H24   S    
C40   N7    T    
C17   C37   S    
C43   C45   A    
C19   C39   S    
C44   H3    S    
C8    C10   A    
C15   C24   S    
C37   N4    T    
C1    C23   S    
Cu2   O9    S    
C8    O10   S    
C12   C34   S    
C27   C46   A    
C6    N1    A    
C15   O7    A    
C29   H22   S    
C4    H6    S    
Cu2   N1    S    
C31   C32   S    
C34   C43   A    
Cu1   N2    S    
C3    C5    A    
C11   N2    A    
C35   H15   S    
C43   H2    S    
C38   N5    T    
C14   C22   S    
C28   C30   A    
C18   C38   S    
C14   O8    A    
C16   C36   S    
C3    H5    S    
C33   H13   S    
C33   C35   S    
Cu1   O1    S    
C5    N1    A    
C25   H1    S    
C7    C13   S    
C20   C21   A    
C16   C18   A    
C5    C40   S    
Cu2   O5    S    
C2    C28   A    
C32   H11   S    
C31   H7    S    
C26   H12   S    
