data_mof_unit_59285.cif
_audit_creation_date              2012-12-11T15:32:10-0500
_audit_creation_method            fapswitch 2.2
_symmetry_space_group_name_H-M    P1
_symmetry_Int_Tables_number       1
_space_group_crystal_system       triclinic
_cell_length_a                    13.578035
_cell_length_b                    13.580589
_cell_length_c                    27.680481
_cell_angle_alpha                 90.335823
_cell_angle_beta                  90.211129
_cell_angle_gamma                 119.949348
_cell_volume                      4422.43166932

loop_
_atom_site_label
_atom_site_type_symbol
_atom_type_description
_atom_site_fract_x
_atom_site_fract_y
_atom_site_fract_z
_atom_type_partial_charge
C1    C     C_R   0.619371 0.898518 0.431215 0.547932
C2    C     C_R   0.110910 0.869830 0.267746 -0.109386
C3    C     C_R   0.095967 0.863703 0.217638 -0.135247
C4    C     C_R   0.599570 0.218334 0.431233 0.542617
C5    C     C_R   0.243046 0.811677 0.208355 0.063299
C6    C     C_R   0.256592 0.817984 0.258935 -0.112728
C7    C     C_R   0.190580 0.846129 0.288507 0.005151
C8    C     C_R   0.160821 0.834473 0.187648 0.007916
C9    C     C_1   0.132061 0.817079 0.136796 -0.000576
C10   C     C_1   0.209156 0.854312 0.340042 -0.050733
C11   C     C_1   0.100224 0.796082 0.095311 0.027708
C12   C     C_R   0.598330 0.238400 0.208342 -0.095237
C13   C     C_1   0.634291 0.866532 0.383486 -0.005114
C14   C     C_R   0.621770 0.724783 0.271603 -0.096122
C15   C     C_R   0.624634 0.707865 0.221382 0.065755
C16   C     C_R   0.279594 0.878902 0.430484 0.549151
C17   C     C_R   0.680551 0.907147 0.209410 -0.119167
C18   C     C_R   0.676368 0.921729 0.259121 -0.101338
C19   C     C_R   0.648251 0.831110 0.290351 0.013104
C20   C     C_R   0.655834 0.801547 0.190127 0.007345
C21   C     C_1   0.672628 0.794821 0.138982 0.001742
C22   C     C_1   0.642140 0.847278 0.341513 -0.051335
C23   C     C_R   0.586740 0.221730 0.258264 -0.095280
C24   C     C_1   0.692181 0.786748 0.097112 0.038830
C25   C     C_R   0.639995 0.278591 0.615324 0.020383
C26   C     C_R   0.721563 0.264442 0.640820 -0.126063
C27   C     C_R   0.733810 0.283119 0.690104 -0.122832
C28   C     C_R   0.620516 0.900644 0.568961 0.543990
C29   C     C_R   0.667822 0.320310 0.714312 0.033957
C30   C     C_R   0.595157 0.346274 0.688020 -0.106374
C31   C     C_R   0.580512 0.324531 0.638668 -0.102910
C32   C     C_R   0.575240 0.300928 0.793750 -0.121307
C33   C     C_R   0.583764 0.323000 0.843079 -0.130066
C34   C     C_R   0.662796 0.306803 0.290121 0.045315
C35   C     C_R   0.786008 0.388996 0.839946 -0.125445
C36   C     C_R   0.778046 0.369916 0.790674 -0.123280
C37   C     C_R   0.673470 0.329697 0.766964 0.034771
C38   C     C_R   0.690301 0.372152 0.865906 0.023843
C39   C     C_R   0.215789 0.859286 0.613643 0.006109
C40   C     C_R   0.601725 0.222954 0.568463 0.540308
C41   C     C_R   0.207897 0.946577 0.638752 0.050500
C42   C     C_R   0.188382 0.935999 0.688445 -0.125044
C43   C     C_R   0.167152 0.836903 0.712570 0.009386
C44   C     C_R   0.160241 0.745455 0.686202 -0.127805
C45   C     C_R   0.686478 0.340057 0.190014 0.047089
C46   C     C_R   0.185151 0.756806 0.637367 -0.146396
C47   C     C_R   0.187019 0.767758 0.793497 -0.116527
C48   C     C_R   0.158775 0.749200 0.842192 -0.129171
C49   C     C_R   0.063270 0.859242 0.835266 -0.124748
C50   C     C_R   0.088497 0.874916 0.786586 -0.120979
C51   C     C_R   0.148649 0.827538 0.764996 0.038882
C52   C     C_R   0.277605 0.880707 0.567751 0.558149
C53   C     C_R   0.094589 0.792880 0.863003 0.023999
C54   C     C_R   0.638963 0.861780 0.615558 0.023040
C55   C     C_R   0.546547 0.770794 0.638594 -0.123624
C56   C     C_1   0.693635 0.362266 0.138997 -0.053556
C57   C     C_R   0.553414 0.750739 0.687210 -0.120752
C58   C     C_R   0.653449 0.819920 0.713341 0.034846
C59   C     C_R   0.749132 0.904523 0.689353 -0.118743
C60   C     C_R   0.741791 0.925767 0.640757 -0.122605
C61   C     C_R   0.713841 0.902398 0.795942 -0.120653
C62   C     C_R   0.725851 0.889470 0.844999 -0.128234
C63   C     C_R   0.614385 0.684622 0.835105 -0.126708
C64   C     C_1   0.630288 0.263343 0.383449 -0.006229
C65   C     C_R   0.604009 0.697496 0.785964 -0.122685
C66   C     C_R   0.656676 0.806368 0.765789 0.033627
C67   C     C_1   0.648456 0.288197 0.341391 -0.051183
C68   C     C_R   0.679426 0.780398 0.864519 0.023485
C69   C     C_R   0.049353 0.761131 0.048223 0.550670
C70   C     C_R   0.714341 0.435756 0.049716 0.549674
C71   C     C_R   0.723543 0.770723 0.049519 0.550727
C72   C     C_R   0.043573 0.755877 0.910476 0.543229
C73   C     C_R   0.707917 0.428413 0.912595 0.539830
C74   C     C_R   0.717336 0.765092 0.911843 0.539693
C75   C     C_R   0.751788 0.407960 0.271803 -0.072844
C76   C     C_R   0.763525 0.424542 0.221837 -0.062448
C77   C     C_2   0.594484 0.592244 0.203271 0.564827
C78   C     C_1   0.701282 0.389389 0.097195 -0.005914
C79   C     C_2   0.218418 0.048826 0.614793 0.587610
C80   C     C_2   0.314528 0.779540 0.178918 0.568783
C81   C     C_1   0.234198 0.863345 0.382350 -0.003966
Cr1   Cr    Cr6+3 0.417720 0.831920 0.499820 1.028461
Cr2   Cr    Cr6+3 0.668190 0.085770 0.500360 1.027996
Cr3   Cr    Cr6+3 0.414060 0.082260 0.499840 1.069476
Cr4   Cr    Cr6+3 0.908000 0.821090 0.979770 1.026434
Cr5   Cr    Cr6+3 0.912420 0.571130 0.979880 1.033878
Cr6   Cr    Cr6+3 0.657970 0.566940 0.980940 1.042996
H1    H     H_    0.811187 0.474158 0.296036 0.113782
H2    H     H_    0.546653 0.379285 0.705848 0.111510
H3    H     H_    0.831333 0.504057 0.208037 0.118048
H4    H     H_    0.518128 0.337214 0.619454 0.156672
H5    H     H_    0.236160 0.732837 0.777888 0.107127
H6    H     H_    0.183689 0.697889 0.863091 0.126335
H7    H     H_    0.190531 0.005977 0.708338 0.130341
H8    H     H_    0.055740 0.919372 0.765547 0.105359
H9    H     H_    0.011998 0.892493 0.850238 0.139196
H10   H     H_    0.138609 0.665984 0.703566 0.109589
H11   H     H_    0.186637 0.687058 0.618864 0.137982
H12   H     H_    0.704815 0.979147 0.185921 0.122913
H13   H     H_    0.466034 0.719811 0.620071 0.133204
H14   H     H_    0.537739 0.172940 0.184159 0.122572
H15   H     H_    0.751980 0.987375 0.781369 0.106756
H16   H     H_    0.775986 0.964381 0.867186 0.126386
H17   H     H_    0.478414 0.685068 0.704844 0.103213
H18   H     H_    0.559786 0.622092 0.763469 0.105155
H19   H     H_    0.578948 0.599416 0.849222 0.135428
H20   H     H_    0.828468 0.956549 0.708535 0.105741
H21   H     H_    0.814522 0.995723 0.623682 0.135763
H22   H     H_    0.517818 0.142896 0.272056 0.116188
H23   H     H_    0.695692 0.004112 0.273257 0.120512
H24   H     H_    0.059919 0.892367 0.290254 0.125580
H25   H     H_    0.031909 0.879826 0.202225 0.122048
H26   H     H_    0.319302 0.801517 0.275587 0.160311
H27   H     H_    0.598056 0.654971 0.296322 0.152609
H28   H     H_    0.551491 0.482562 0.147062 0.347730
H29   H     H_    0.178312 0.113648 0.557552 0.330934
H30   H     H_    0.413614 0.707785 0.177290 0.354466
H31   H     H_    0.768881 0.229169 0.623697 0.136755
H32   H     H_    0.492814 0.265572 0.776313 0.115343
H33   H     H_    0.508710 0.308175 0.862663 0.128740
H34   H     H_    0.790151 0.262029 0.709473 0.102484
H35   H     H_    0.855197 0.393148 0.770917 0.103696
H36   H     H_    0.869423 0.426746 0.856679 0.136765
O1    O     O_R   0.302900 0.805360 0.446400 -0.504850
O2    O     O_R   0.638120 0.455970 0.034270 -0.496744
O3    O     O_R   0.667540 0.672320 0.030160 -0.474180
O4    O     O_R   0.522090 0.841370 0.450730 -0.492957
O5    O     O_R   0.814460 0.840990 0.926980 -0.521287
O6    O     O_R   0.001710 0.811400 0.930110 -0.504745
O7    O     O_R   0.023410 0.659800 0.926210 -0.517221
O8    O     O_R   0.806940 0.473170 0.931090 -0.506931
O9    O     O_R   0.633420 0.451310 0.927930 -0.521716
O10   O     O_R   0.663190 0.668000 0.931580 -0.503488
O11   O     O_3   0.826130 0.653050 0.980200 -0.252238
O12   O     O_R   0.657980 0.180990 0.549630 -0.509410
O13   O     O_R   0.693280 0.995650 0.447220 -0.502932
O14   O     O_R   0.657260 0.178740 0.451050 -0.495887
O15   O     O_R   0.502640 0.195380 0.446850 -0.503672
O16   O     O_R   0.319630 0.976590 0.450330 -0.487570
O17   O     O_R   0.303680 0.807790 0.552740 -0.529605
O18   O     O_R   0.522820 0.843620 0.549310 -0.505260
O19   O     O_R   0.694060 0.998080 0.553560 -0.517746
O20   O     O_2   0.587508 0.520336 0.231651 -0.528336
O21   O     O_R   0.571571 0.563786 0.154293 -0.692672
O22   O     O_2   0.269430 0.141610 0.634960 -0.547690
O23   O     O_R   0.503420 0.197810 0.553190 -0.499274
O24   O     O_R   0.165904 0.038244 0.569993 -0.683799
O25   O     O_2   0.326737 0.799016 0.135623 -0.513928
O26   O     O_R   0.369387 0.727525 0.201070 -0.703335
O27   O     O_R   0.320350 0.978840 0.548910 -0.455637
O28   O     O_3   0.499990 0.999990 0.500010 -0.257042
O29   O     O_R   0.819150 0.845650 0.033320 -0.514857
O30   O     O_R   0.006060 0.815720 0.028680 -0.498746
O31   O     O_R   0.028100 0.664460 0.032550 -0.493999
O32   O     O_R   0.811290 0.477490 0.029660 -0.494642

loop_
_geom_bond_atom_site_label_1
_geom_bond_atom_site_label_2
_ccdc_geom_bond_type
C25   C31   A    
C7    C10   S    
C63   C65   A    
C27   C29   A    
C47   H5    S    
Cr6   O10   S    
C2    C7    A    
Cr6   O2    S    
Cr5   O32   S    
C73   O8    A    
C27   H34   S    
C72   O6    A    
C39   C41   A    
C54   C60   A    
C12   C23   A    
C26   C27   A    
C45   C76   A    
C33   C38   A    
C36   C37   A    
C30   H2    S    
C25   C40   S    
C30   C31   A    
Cr5   O8    S    
C70   C78   S    
C68   C74   S    
C74   O10   A    
C17   C20   A    
C56   C78   T    
C18   C19   A    
C41   C42   A    
Cr1   O1    S    
Cr1   O17   S    
Cr4   O6    S    
C4    O14   A    
H28   O21   S    
C61   C66   A    
Cr5   O11   S    
C74   O5    A    
C35   C36   A    
Cr3   O16   S    
C44   C46   A    
C8    C9    S    
C55   H13   S    
C71   O3    A    
C1    O13   A    
Cr2   O12   S    
Cr1   O28   S    
C60   H21   S    
C34   C75   A    
C39   C52   S    
C46   H11   S    
C73   O9    A    
Cr3   O15   S    
C59   C60   A    
Cr6   O11   S    
C80   O26   S    
Cr1   O18   S    
C65   H18   S    
Cr2   O19   S    
C58   C66   S    
C50   C51   A    
Cr2   O28   S    
C15   C20   A    
C23   H22   S    
C40   O12   A    
C2    H24   S    
C48   H6    S    
C70   O32   A    
C64   C67   T    
C18   H23   S    
C19   C22   S    
C45   C56   S    
C79   O22   D    
C3    C8    A    
C28   C54   S    
Cr5   O7    S    
C79   O24   S    
C25   C26   A    
C14   H27   S    
C69   O30   A    
C63   H19   S    
Cr6   O9    S    
C36   H35   S    
C75   C76   A    
C77   O20   D    
C6    H26   S    
C29   C30   A    
H29   O24   S    
C9    C11   T    
C44   H10   S    
C47   C48   A    
C3    H25   S    
C23   C34   A    
C35   C38   A    
C17   C18   A    
Cr4   O30   S    
C32   C37   A    
C5    C80   S    
C17   H12   S    
Cr2   O13   S    
C39   C46   A    
C70   O2    A    
C15   C77   S    
C49   C50   A    
C31   H4    S    
C55   C57   A    
C43   C44   A    
C16   O16   A    
C1    C13   S    
C42   C43   A    
C32   H32   S    
Cr2   O14   S    
C62   H16   S    
C57   H17   S    
C54   C55   A    
Cr4   O11   S    
C63   C68   A    
C42   H7    S    
C14   C19   A    
C1    O4    A    
C12   C45   A    
C34   C67   S    
C41   C79   S    
C5    C8    A    
C47   C51   A    
C11   C69   S    
C72   O7    A    
C6    C7    A    
Cr3   O23   S    
C48   C53   A    
C26   H31   S    
C4    C64   S    
C10   C81   T    
C69   O31   A    
C40   O23   A    
C32   C33   A    
C35   H36   S    
C2    C3    A    
C58   C59   A    
C77   O21   S    
C12   H14   S    
C43   C51   S    
C57   C58   A    
C5    C6    A    
C49   C53   A    
C16   C81   S    
C52   O17   A    
C13   C22   T    
C61   H15   S    
C62   C68   A    
C49   H9    S    
Cr5   O31   S    
C61   C62   A    
C50   H8    S    
C59   H20   S    
Cr1   O4    S    
Cr4   O29   S    
C4    O15   A    
Cr3   O28   S    
C75   H1    S    
C80   O25   D    
C28   O19   A    
C20   C21   S    
C33   H33   S    
C52   O27   A    
C65   C66   A    
C21   C24   T    
C29   C37   S    
C71   O29   A    
C14   C15   A    
Cr4   O5    S    
H30   O26   S    
C28   O18   A    
C16   O1    A    
C53   C72   S    
Cr6   O3    S    
C24   C71   S    
C76   H3    S    
C38   C73   S    
Cr3   O27   S    
