data_mof_unit_49641.cif
_audit_creation_date              2012-12-10T17:49:44-0500
_audit_creation_method            fapswitch 2.2
_symmetry_space_group_name_H-M    P1
_symmetry_Int_Tables_number       1
_space_group_crystal_system       triclinic
_cell_length_a                    10.54769
_cell_length_b                    10.626225
_cell_length_c                    10.028664
_cell_angle_alpha                 91.289594
_cell_angle_beta                  88.993487
_cell_angle_gamma                 93.151171
_cell_volume                      1121.90002558

loop_
_atom_site_label
_atom_site_type_symbol
_atom_type_description
_atom_site_fract_x
_atom_site_fract_y
_atom_site_fract_z
_atom_type_partial_charge
Br1   Br    Br    0.670713 0.852462 0.238836 -0.383758
Br2   Br    Br    0.293585 0.250797 0.228366 -0.353502
Br3   Br    Br    0.065353 0.217929 0.491923 -0.356538
Br4   Br    Br    0.108616 0.666161 0.237954 -0.410143
Br5   Br    Br    0.645405 0.155761 0.234415 -0.334130
Br6   Br    Br    0.281849 0.195642 0.734194 -0.392781
C1    C     C_R   0.499882 0.258772 0.499055 0.979603
C2    C     C_R   0.493331 0.056597 0.620276 -0.039302
C3    C     C_R   0.512748 0.123612 0.498662 -0.192496
C4    C     C_R   0.257930 0.506086 0.500614 0.990507
C5    C     C_R   0.573596 0.065149 0.386891 0.263377
C6    C     C_R   0.590531 0.936288 0.388833 0.249740
C7    C     C_R   0.560631 0.871608 0.506105 -0.220794
C8    C     C_R   0.280651 0.396693 0.122059 0.211987
C9    C     C_R   0.163646 0.406439 0.055722 0.449758
C10   C     C_R   0.160911 0.481199 0.944158 -0.096164
C11   C     C_R   0.274143 0.523729 0.883261 -0.102518
C12   C     C_3   0.960767 0.633150 0.496286 -0.205176
C13   C     C_R   0.389404 0.490937 0.932751 -0.025534
C14   C     C_R   0.391920 0.461911 0.069992 -0.035173
C15   C     C_R   0.608520 0.526647 0.071639 0.521597
C16   C     C_R   0.523520 0.737973 0.501170 0.908012
C17   C     C_R   0.609401 0.521300 0.927990 0.343333
C18   C     C_R   0.741682 0.504892 0.499225 0.907497
C19   C     C_3   0.032885 0.395072 0.499760 0.224195
C20   C     C_3   0.955251 0.450540 0.388529 -0.198754
C21   C     C_3   0.875933 0.511759 0.498068 -0.152432
C22   C     C_3   0.951166 0.456259 0.609657 -0.217339
C23   C     C_3   0.044679 0.570519 0.389262 0.271649
C24   C     C_3   0.038862 0.576354 0.604805 0.392945
C25   C     C_3   0.122396 0.514267 0.499615 -0.179772
C26   C     C_R   0.433220 0.102233 0.739321 0.195454
C27   C     C_R   0.465483 0.054556 0.864108 0.470646
C28   C     C_R   0.541486 0.952085 0.868116 -0.126921
C29   C     C_R   0.577803 0.892307 0.750390 -0.207816
C30   C     C_R   0.545290 0.939359 0.626118 0.030329
H1    H     H_    0.911350 0.400193 0.301553 0.236932
H2    H     H_    0.705492 0.624313 0.808113 0.340031
H3    H     H_    0.003380 0.676766 0.760456 0.358287
H4    H     H_    0.398933 0.191387 0.968427 0.361151
H5    H     H_    0.567820 0.915252 0.962847 0.219310
H6    H     H_    0.634620 0.811434 0.756466 0.162165
H7    H     H_    0.070741 0.500608 0.901869 0.211035
H8    H     H_    0.273592 0.593223 0.807903 0.252303
H9    H     H_    0.911398 0.410381 0.700796 0.221882
H10   H     H_    0.926695 0.730189 0.496088 0.193857
H11   H     H_    0.790217 0.574999 0.079706 0.383412
H12   H     H_    0.062025 0.300922 0.178506 0.378939
N1    N     N_R   0.498800 0.498800 0.142780 -0.121825
N2    N     N_R   0.498760 0.498720 0.857170 -0.152841
O1    O     O_R   0.500000 0.316780 0.614690 -0.599399
O2    O     O_3   0.050752 0.345042 0.094460 -0.714573
O3    O     O_3   0.721678 0.550708 0.862572 -0.766910
O4    O     O_3   0.081252 0.649858 0.713627 -0.767642
O5    O     O_3   0.423269 0.104363 0.983542 -0.665612
O6    O     O_R   0.499990 0.316750 0.385360 -0.547224
O7    O     O_R   0.313960 0.499980 0.614650 -0.603135
O8    O     O_R   0.313940 0.499960 0.385310 -0.598509
O9    O     O_R   0.500010 0.683250 0.614640 -0.648428
O10   O     O_R   0.500000 0.683220 0.385310 -0.556835
O11   O     O_R   0.686060 0.500040 0.614690 -0.617453
O12   O     O_R   0.686040 0.500020 0.385350 -0.542219
O13   O     O_3   0.717297 0.559211 0.141551 -0.684224
Zn1   Zn    Zn3+2 0.500010 0.500020 0.653130 0.990732
Zn2   Zn    Zn3+2 0.499990 0.499980 0.346870 1.097212

loop_
_geom_bond_atom_site_label_1
_geom_bond_atom_site_label_2
_ccdc_geom_bond_type
C27   O5    S    
O11   Zn1   S    
Br6   C26   S    
C5    C6    A    
C20   H1    S    
C19   C25   S    
C14   N1    A    
C12   C24   S    
N2    Zn1   S    
O6    Zn2   S    
O8    Zn2   S    
C13   C14   A    
C13   N2    A    
C18   C21   S    
Br3   C19   S    
H4    O5    S    
C26   C27   A    
C24   O4    S    
C22   C24   S    
C27   C28   A    
O9    Zn1   S    
C11   H8    S    
C1    O1    A    
C23   C25   S    
C12   C23   S    
C9    O2    S    
C19   C22   S    
H11   O13   S    
C3    C5    A    
C10   H7    S    
C20   C21   S    
C18   O11   A    
H2    O3    S    
N1    Zn2   S    
C1    O6    A    
C7    C30   A    
C12   H10   S    
C15   N1    A    
C11   C13   A    
C7    C16   S    
O10   Zn2   S    
C17   O3    S    
C15   C17   A    
Br5   C5    S    
C16   O10   A    
C24   C25   S    
Br2   C8    S    
C22   H9    S    
C15   O13   S    
H3    O4    S    
C10   C11   A    
O1    Zn1   S    
C9    C10   A    
C2    C26   A    
C8    C14   A    
H12   O2    S    
C4    O7    A    
C6    C7    A    
C20   C23   S    
C28   C29   A    
C2    C30   A    
C16   O9    A    
C1    C3    S    
C29   H6    S    
C8    C9    A    
C2    C3    A    
C17   N2    A    
C18   O12   A    
C29   C30   A    
O12   Zn2   S    
C4    O8    A    
C19   C20   S    
C4    C25   S    
Br1   C6    S    
C12   C21   S    
Br4   C23   S    
O7    Zn1   S    
C21   C22   S    
C28   H5    S    
