data_mof_unit_65468.cif
_audit_creation_date              2012-12-10T19:49:15-0500
_audit_creation_method            fapswitch 2.2
_symmetry_space_group_name_H-M    P1
_symmetry_Int_Tables_number       1
_space_group_crystal_system       triclinic
_cell_length_a                    26.053971
_cell_length_b                    26.053691
_cell_length_c                    22.224682
_cell_angle_alpha                 90.000046
_cell_angle_beta                  54.116228
_cell_angle_gamma                 90.0
_cell_volume                      12222.9236399

loop_
_atom_site_label
_atom_site_type_symbol
_atom_type_description
_atom_site_fract_x
_atom_site_fract_y
_atom_site_fract_z
_atom_type_partial_charge
Br1   Br    Br    0.380759 0.668322 0.081175 -0.541207
Br2   Br    Br    0.380856 0.331771 0.081176 -0.541223
Br3   Br    Br    0.880566 0.168509 0.081175 -0.540569
Br4   Br    Br    0.884913 0.835489 0.081176 -0.540636
C1    C     C_R   0.849468 0.750043 0.301070 0.816905
C2    C     C_R   0.445309 0.250570 0.500534 -0.082095
C3    C     C_R   0.304292 0.974099 0.456463 0.131063
C4    C     C_R   0.749180 0.554456 0.500530 -0.084265
C5    C     C_R   0.749180 0.445544 0.500530 -0.084271
C6    C     C_R   0.249180 0.054456 0.500529 -0.084292
C7    C     C_R   0.249180 0.945544 0.500530 -0.084295
C8    C     C_R   0.691836 0.526994 0.546262 -0.222099
C9    C     C_R   0.691836 0.473006 0.546262 -0.222081
C10   C     C_R   0.191836 0.026994 0.546262 -0.221975
C11   C     C_R   0.191836 0.973006 0.546262 -0.221965
C12   C     C_3   0.874295 0.470429 0.401189 -0.474070
C13   C     C_R   0.945309 0.249430 0.500534 -0.082104
C14   C     C_3   0.874295 0.529571 0.401189 -0.474086
C15   C     C_3   0.374295 0.970429 0.401190 -0.474135
C16   C     C_3   0.374295 0.029570 0.401190 -0.474074
C17   C     C_R   0.750022 0.890012 0.500063 0.806056
C18   C     C_R   0.750022 0.109988 0.500063 0.805890
C19   C     C_R   0.250022 0.390012 0.500063 0.805843
C20   C     C_R   0.250022 0.609988 0.500063 0.805809
C21   C     C_R   0.889993 0.750050 0.500050 0.807336
C22   C     C_R   0.889993 0.249950 0.500050 0.807285
C23   C     C_R   0.389993 0.250050 0.500050 0.807273
C24   C     C_R   0.945309 0.750570 0.500534 -0.082080
C25   C     C_R   0.389993 0.749950 0.500050 0.807259
C26   C     C_R   0.609991 0.749996 0.500078 0.804709
C27   C     C_R   0.609991 0.250005 0.500078 0.804842
C28   C     C_R   0.109991 0.249995 0.500078 0.804847
C29   C     C_R   0.109991 0.750004 0.500078 0.804828
C30   C     C_R   0.547720 0.782474 0.456397 0.126130
C31   C     C_R   0.547725 0.217532 0.456387 0.126002
C32   C     C_R   0.047725 0.282469 0.456388 0.126022
C33   C     C_R   0.047725 0.717531 0.456388 0.126021
C34   C     C_R   0.554195 0.749454 0.500556 -0.081779
C35   C     C_R   0.495929 0.782463 0.456386 0.129185
C36   C     C_R   0.554195 0.250545 0.500557 -0.081690
C37   C     C_R   0.054195 0.249455 0.500557 -0.081703
C38   C     C_R   0.054195 0.750545 0.500557 -0.081672
C39   C     C_R   0.503831 0.715030 0.546379 -0.222800
C40   C     C_R   0.503825 0.284962 0.546392 -0.222764
C41   C     C_R   0.003825 0.215037 0.546390 -0.222742
C42   C     C_R   0.003825 0.784963 0.546391 -0.222832
C43   C     C_R   0.495934 0.217543 0.456377 0.129075
C44   C     C_R   0.995934 0.282457 0.456378 0.129083
C45   C     C_R   0.995934 0.717543 0.456377 0.129089
C46   C     C_3   0.519966 0.824736 0.400962 -0.473394
C47   C     C_3   0.519980 0.175281 0.400935 -0.473192
C48   C     C_3   0.019979 0.324721 0.400938 -0.473191
C49   C     C_R   0.849468 0.249956 0.301070 0.816859
C50   C     C_3   0.019980 0.675280 0.400936 -0.473174
C51   C     C_3   0.579102 0.824748 0.400972 -0.461143
C52   C     C_3   0.579116 0.175269 0.400945 -0.460582
C53   C     C_3   0.079114 0.324732 0.400948 -0.460635
C54   C     C_3   0.079115 0.675268 0.400946 -0.460627
C55   C     C_3   0.467924 0.733777 0.956335 -0.406616
C56   C     C_3   0.467944 0.266287 0.956334 -0.406616
C57   C     C_3   0.967886 0.233905 0.956334 -0.406618
C58   C     C_3   0.968803 0.768888 0.956334 -0.406514
C59   C     C_3   0.534101 0.803772 0.957174 -0.394050
C60   C     C_R   0.349468 0.250044 0.301070 0.816837
C61   C     C_3   0.534038 0.196214 0.957174 -0.394014
C62   C     C_3   0.034229 0.303742 0.957174 -0.394009
C63   C     C_3   0.031426 0.695675 0.957174 -0.394167
C64   C     C_3   0.491048 0.803537 0.043303 -0.466773
C65   C     C_3   0.490985 0.196448 0.043303 -0.466722
C66   C     C_3   0.991175 0.303508 0.043303 -0.466715
C67   C     C_3   0.988385 0.695909 0.043303 -0.466884
C68   C     C_1   0.389139 0.749909 0.221662 -0.110942
C69   C     C_1   0.389139 0.250091 0.221662 -0.110852
C70   C     C_1   0.889138 0.249909 0.221662 -0.110800
C71   C     C_R   0.349468 0.749956 0.301070 0.816821
C72   C     C_1   0.889147 0.750099 0.221662 -0.110898
C73   C     C_3   0.536269 0.749671 0.926773 0.294602
C74   C     C_3   0.536270 0.250330 0.926773 0.294494
C75   C     C_3   0.036268 0.249672 0.926773 0.294397
C76   C     C_3   0.036293 0.750356 0.926773 0.294535
C77   C     C_R   0.650573 0.749993 0.698940 0.819746
C78   C     C_R   0.650573 0.250007 0.698940 0.819751
C79   C     C_R   0.150573 0.249993 0.698940 0.819762
C80   C     C_R   0.150573 0.750007 0.698940 0.819767
C81   C     C_3   0.424126 0.734243 0.042690 0.135041
C82   C     C_R   0.449853 0.715017 0.546368 -0.223486
C83   C     C_3   0.424145 0.265822 0.042690 0.135036
C84   C     C_3   0.924088 0.234372 0.042690 0.135011
C85   C     C_3   0.924982 0.768453 0.042690 0.135068
C86   C     C_3   0.462790 0.749297 0.073206 0.271398
C87   C     C_3   0.462791 0.250704 0.073206 0.271263
C88   C     C_3   0.962788 0.249299 0.073206 0.271135
C89   C     C_3   0.962833 0.750742 0.073206 0.271290
C90   C     C_3   0.518703 0.711252 0.042921 -0.365967
C91   C     C_3   0.518749 0.288700 0.042921 -0.365863
C92   C     C_3   0.018611 0.211158 0.042921 -0.365709
C93   C     C_R   0.449846 0.284975 0.546380 -0.223452
C94   C     C_3   0.020584 0.786718 0.042921 -0.365862
C95   C     C_3   0.561488 0.711090 0.956812 -0.387121
C96   C     C_3   0.561535 0.288863 0.956813 -0.387059
C97   C     C_3   0.061396 0.210996 0.956812 -0.386965
C98   C     C_3   0.063378 0.786893 0.956812 -0.387068
C99   C     C_1   0.422364 0.749712 0.154847 -0.065542
C100  C     C_1   0.422364 0.250288 0.154847 -0.065455
C101  C     C_1   0.922363 0.249713 0.154847 -0.065428
C102  C     C_1   0.922385 0.750307 0.154847 -0.065514
C103  C     C_1   0.577304 0.749875 0.845186 -0.105848
C104  C     C_R   0.949847 0.215024 0.546379 -0.223428
C105  C     C_1   0.577305 0.250126 0.845186 -0.105792
C106  C     C_1   0.077304 0.249876 0.845186 -0.105735
C107  C     C_1   0.077318 0.750139 0.845186 -0.105802
C108  C     C_1   0.610830 0.749970 0.778365 -0.137034
C109  C     C_1   0.610830 0.250030 0.778365 -0.136980
C110  C     C_1   0.110830 0.249970 0.778365 -0.136937
C111  C     C_1   0.110836 0.750036 0.778365 -0.136993
C112  C     C_R   0.739499 0.974103 0.456270 0.123820
C113  C     C_R   0.739498 0.025896 0.456270 0.123763
C114  C     C_R   0.239488 0.474104 0.456279 0.123801
C115  C     C_R   0.949847 0.784975 0.546379 -0.223489
C116  C     C_R   0.239488 0.525896 0.456279 0.123796
C117  C     C_R   0.750301 0.945559 0.500555 -0.079340
C118  C     C_R   0.750301 0.054441 0.500555 -0.079343
C119  C     C_R   0.250302 0.445559 0.500554 -0.079395
C120  C     C_R   0.250302 0.554441 0.500554 -0.079397
C121  C     C_R   0.761643 0.973010 0.546528 -0.223667
C122  C     C_R   0.761643 0.026990 0.546528 -0.223655
C123  C     C_R   0.261657 0.473010 0.546516 -0.223734
C124  C     C_R   0.261657 0.526990 0.546516 -0.223746
C125  C     C_R   0.749952 0.610022 0.500062 0.806525
C126  C     C_R   0.445309 0.749429 0.500533 -0.082180
C127  C     C_R   0.749952 0.389977 0.500062 0.806604
C128  C     C_R   0.249952 0.110022 0.500062 0.806651
C129  C     C_R   0.249952 0.889977 0.500062 0.806690
C130  C     C_3   0.725188 0.029570 0.400623 -0.458418
C131  C     C_3   0.725188 0.970429 0.400623 -0.458273
C132  C     C_3   0.225159 0.529570 0.400649 -0.458579
C133  C     C_3   0.225159 0.470430 0.400649 -0.458570
C134  C     C_R   0.804292 0.525900 0.456463 0.131001
C135  C     C_R   0.804292 0.474099 0.456463 0.131009
C136  C     C_R   0.304292 0.025900 0.456463 0.131044
H1    H     H_    0.505906 0.688206 0.582124 0.179012
H2    H     H_    0.452181 0.167957 0.064075 0.169939
H3    H     H_    0.952472 0.332100 0.064075 0.169923
H4    H     H_    0.948234 0.668827 0.064076 0.169796
H5    H     H_    0.519149 0.815629 0.063941 0.189381
H6    H     H_    0.519072 0.184311 0.063941 0.189529
H7    H     H_    0.019304 0.315508 0.063941 0.189541
H8    H     H_    0.015839 0.681927 0.063940 0.189437
H9    H     H_    0.562810 0.671749 0.936412 0.184337
H10   H     H_    0.562903 0.328214 0.936412 0.184336
H11   H     H_    0.062624 0.171677 0.936412 0.184518
H12   H     H_    0.505895 0.311780 0.582146 0.178997
H13   H     H_    0.066663 0.826626 0.936412 0.184143
H14   H     H_    0.610819 0.721342 0.935903 0.169905
H15   H     H_    0.610852 0.278564 0.935904 0.170090
H16   H     H_    0.110750 0.221156 0.935903 0.170091
H17   H     H_    0.112151 0.774724 0.935904 0.170317
H18   H     H_    0.500750 0.671811 0.063884 0.210475
H19   H     H_    0.500842 0.328150 0.063884 0.210477
H20   H     H_    0.000565 0.171734 0.063884 0.210668
H21   H     H_    0.004596 0.826482 0.063884 0.210295
H22   H     H_    0.468714 0.695020 0.934801 0.211274
H23   H     H_    0.005896 0.188218 0.582143 0.179009
H24   H     H_    0.468780 0.305056 0.934801 0.211275
H25   H     H_    0.968584 0.195172 0.934801 0.211333
H26   H     H_    0.971529 0.808093 0.934802 0.211283
H27   H     H_    0.547410 0.722474 0.063098 0.163710
H28   H     H_    0.547442 0.277433 0.063099 0.163950
H29   H     H_    0.047344 0.222288 0.063098 0.163954
H30   H     H_    0.048685 0.773586 0.063099 0.164188
H31   H     H_    0.770474 0.953066 0.582380 0.177710
H32   H     H_    0.770474 0.046934 0.582380 0.177720
H33   H     H_    0.270498 0.453065 0.582360 0.177729
H34   H     H_    0.005896 0.811781 0.582144 0.178961
H35   H     H_    0.270498 0.546935 0.582360 0.177727
H36   H     H_    0.412042 0.688185 0.582106 0.178434
H37   H     H_    0.412032 0.311801 0.582127 0.178420
H38   H     H_    0.912033 0.188197 0.582125 0.178427
H39   H     H_    0.912032 0.811802 0.582126 0.178387
H40   H     H_    0.677799 0.046627 0.424458 0.202103
H41   H     H_    0.677799 0.953372 0.424458 0.202035
H42   H     H_    0.177767 0.546627 0.424499 0.202148
H43   H     H_    0.177767 0.453373 0.424499 0.202149
H44   H     H_    0.764997 0.046638 0.347356 0.223334
H45   H     H_    0.515749 0.832195 0.936704 0.171041
H46   H     H_    0.764997 0.953362 0.347356 0.223642
H47   H     H_    0.264960 0.546638 0.347377 0.223137
H48   H     H_    0.264960 0.453361 0.347377 0.223147
H49   H     H_    0.647129 0.546939 0.581931 0.179770
H50   H     H_    0.647128 0.453061 0.581931 0.179770
H51   H     H_    0.147128 0.046939 0.581931 0.179793
H52   H     H_    0.147128 0.953061 0.581931 0.179787
H53   H     H_    0.897593 0.453374 0.425337 0.204114
H54   H     H_    0.897593 0.546625 0.425337 0.204117
H55   H     H_    0.397592 0.953374 0.425338 0.204120
H56   H     H_    0.515653 0.167825 0.936704 0.171028
H57   H     H_    0.397592 0.046626 0.425338 0.204124
H58   H     H_    0.888034 0.453360 0.347809 0.209223
H59   H     H_    0.888034 0.546640 0.347809 0.209207
H60   H     H_    0.388035 0.953360 0.347809 0.209210
H61   H     H_    0.388035 0.046640 0.347809 0.209227
H62   H     H_    0.529574 0.811691 0.347624 0.212001
H63   H     H_    0.529585 0.188336 0.347602 0.212262
H64   H     H_    0.029584 0.311667 0.347604 0.212268
H65   H     H_    0.029585 0.688334 0.347603 0.212314
H66   H     H_    0.490892 0.860145 0.424982 0.203416
H67   H     H_    0.015944 0.332232 0.936704 0.171017
H68   H     H_    0.490914 0.139867 0.424939 0.203354
H69   H     H_    0.990911 0.360134 0.424944 0.203341
H70   H     H_    0.990912 0.639867 0.424942 0.203321
H71   H     H_    0.622843 0.811709 0.347641 0.218271
H72   H     H_    0.622854 0.188319 0.347618 0.218904
H73   H     H_    0.122853 0.311684 0.347621 0.218874
H74   H     H_    0.122854 0.688317 0.347620 0.218909
H75   H     H_    0.584136 0.860163 0.424997 0.203367
H76   H     H_    0.584158 0.139849 0.424954 0.203251
H77   H     H_    0.084156 0.360152 0.424959 0.203240
H78   H     H_    0.011698 0.668706 0.936705 0.170884
H79   H     H_    0.084157 0.639848 0.424957 0.203225
H80   H     H_    0.386167 0.763270 0.061618 0.121882
H81   H     H_    0.386152 0.236828 0.061617 0.121871
H82   H     H_    0.886198 0.263467 0.061618 0.121788
H83   H     H_    0.885619 0.740875 0.061616 0.121911
H84   H     H_    0.448827 0.760756 0.935113 0.150386
H85   H     H_    0.448816 0.239343 0.935112 0.150380
H86   H     H_    0.948853 0.260954 0.935113 0.150333
H87   H     H_    0.948405 0.743417 0.935112 0.150486
H88   H     H_    0.582742 0.816092 0.936614 0.181246
H89   H     H_    0.452277 0.832062 0.064076 0.169956
H90   H     H_    0.582664 0.183848 0.936614 0.181367
H91   H     H_    0.082898 0.315972 0.936614 0.181376
H92   H     H_    0.079407 0.681466 0.936613 0.181297
O1    O     O_3   0.750020 0.750020 0.500000 -0.481294
O2    O     O_R   0.741140 0.134170 0.457020 -0.640918
O3    O     O_R   0.241140 0.365830 0.457020 -0.640931
O4    O     O_R   0.241140 0.634170 0.457020 -0.640939
O5    O     O_R   0.862350 0.719680 0.336040 -0.646088
O6    O     O_R   0.862350 0.280320 0.336040 -0.646148
O7    O     O_R   0.362350 0.219680 0.336040 -0.646139
O8    O     O_R   0.362350 0.780320 0.336040 -0.646202
O9    O     O_R   0.698420 0.780360 0.663960 -0.639349
O10   O     O_R   0.698420 0.219640 0.663960 -0.639302
O11   O     O_R   0.198420 0.280360 0.663960 -0.639303
O12   O     O_3   0.750020 0.249980 0.500000 -0.481319
O13   O     O_R   0.198420 0.719640 0.663960 -0.639281
O14   O     O_R   0.801620 0.780400 0.336040 -0.622197
O15   O     O_R   0.801620 0.219600 0.336040 -0.622036
O16   O     O_R   0.301620 0.280400 0.336040 -0.622076
O17   O     O_R   0.301620 0.719600 0.336040 -0.622049
O18   O     O_R   0.637700 0.719640 0.663960 -0.636059
O19   O     O_R   0.637700 0.280360 0.663960 -0.636086
O20   O     O_R   0.137700 0.219640 0.663960 -0.636059
O21   O     O_R   0.137700 0.780360 0.663960 -0.636106
O22   O     O_R   0.801870 0.634220 0.457010 -0.643877
O23   O     O_3   0.250020 0.250020 0.500000 -0.481316
O24   O     O_R   0.801870 0.365780 0.457010 -0.643843
O25   O     O_R   0.301870 0.134220 0.457010 -0.643840
O26   O     O_R   0.301870 0.865780 0.457010 -0.643837
O27   O     O_R   0.758890 0.865820 0.542980 -0.649398
O28   O     O_R   0.758890 0.134180 0.542980 -0.649386
O29   O     O_R   0.258890 0.365820 0.542980 -0.649391
O30   O     O_R   0.258890 0.634180 0.542980 -0.649400
O31   O     O_R   0.887320 0.719660 0.457000 -0.643165
O32   O     O_R   0.887320 0.280340 0.457000 -0.643203
O33   O     O_R   0.387320 0.219660 0.457000 -0.643204
O34   O     O_3   0.250020 0.749980 0.500000 -0.481296
O35   O     O_R   0.387320 0.780340 0.457000 -0.643229
O36   O     O_R   0.655700 0.780400 0.457020 -0.641983
O37   O     O_R   0.655700 0.219600 0.457020 -0.641807
O38   O     O_R   0.155700 0.280400 0.457020 -0.641814
O39   O     O_R   0.155700 0.719600 0.457020 -0.641800
O40   O     O_R   0.844340 0.780370 0.542980 -0.648273
O41   O     O_R   0.844340 0.219630 0.542980 -0.648258
O42   O     O_R   0.344340 0.280370 0.542980 -0.648263
O43   O     O_R   0.344340 0.719630 0.542980 -0.648250
O44   O     O_R   0.612730 0.719670 0.543000 -0.648619
O45   O     O_R   0.698170 0.634220 0.542990 -0.647518
O46   O     O_R   0.612730 0.280330 0.543000 -0.648648
O47   O     O_R   0.112730 0.219670 0.543000 -0.648640
O48   O     O_R   0.112730 0.780330 0.543000 -0.648674
O49   O     O_R   0.698170 0.365780 0.542990 -0.647506
O50   O     O_R   0.198170 0.134220 0.542990 -0.647484
O51   O     O_R   0.198170 0.865780 0.542990 -0.647474
O52   O     O_R   0.741140 0.865830 0.457020 -0.640782
Zn1   Zn    Zn3+2 0.675940 0.706640 0.561420 0.966174
Zn2   Zn    Zn3+2 0.762700 0.206610 0.561410 0.964092
Zn3   Zn    Zn3+2 0.262700 0.293390 0.561410 0.964071
Zn4   Zn    Zn3+2 0.262700 0.706610 0.561410 0.964057
Zn5   Zn    Zn3+2 0.737340 0.793410 0.438590 0.976255
Zn6   Zn    Zn3+2 0.737340 0.206590 0.438590 0.976382
Zn7   Zn    Zn3+2 0.237340 0.293410 0.438590 0.976309
Zn8   Zn    Zn3+2 0.237340 0.706590 0.438590 0.976295
Zn9   Zn    Zn3+2 0.675940 0.293360 0.561420 0.966251
Zn10  Zn    Zn3+2 0.175940 0.206640 0.561420 0.966314
Zn11  Zn    Zn3+2 0.175940 0.793360 0.561420 0.966266
Zn12  Zn    Zn3+2 0.824100 0.706650 0.438580 0.960888
Zn13  Zn    Zn3+2 0.824100 0.293350 0.438580 0.960869
Zn14  Zn    Zn3+2 0.324100 0.206650 0.438580 0.960873
Zn15  Zn    Zn3+2 0.324100 0.793350 0.438580 0.960803
Zn16  Zn    Zn3+2 0.762700 0.793390 0.561410 0.964126

loop_
_geom_bond_atom_site_label_1
_geom_bond_atom_site_label_2
_ccdc_geom_bond_type
O14   Zn5   S    
C83   C87   S    
C103  C108  T    
C15   C16   S    
C13   C44   A    
C31   C43   A    
C91   H28   S    
C62   C75   S    
C95   H9    S    
C15   H60   S    
C61   H90   S    
C16   H61   S    
O23   Zn10  S    
C58   H87   S    
O48   Zn11  S    
C78   O10   A    
C4    C134  A    
C33   C38   A    
C5    C9    A    
C12   H53   S    
C18   O2    A    
C7    C11   A    
C64   C86   S    
O31   Zn12  S    
C42   H34   S    
C131  H46   S    
C75   C106  S    
C41   C104  A    
C29   O39   A    
C79   C110  S    
C71   O8    A    
C115  H39   S    
C18   C118  S    
O44   Zn1   S    
C5    C127  S    
C112  C117  A    
C2    C93   A    
O38   Zn7   S    
C96   H10   S    
C65   H2    S    
C94   C98   S    
C97   H11   S    
O34   Zn11  S    
C49   O15   A    
C50   H65   S    
O42   Zn3   S    
C98   H13   S    
C59   H88   S    
C54   H74   S    
C96   H15   S    
C129  O26   A    
C3    C15   S    
C84   H82   S    
C12   H58   S    
Br4   C85   S    
C124  H35   S    
C63   H78   S    
C82   C126  A    
C130  H44   S    
C81   C86   S    
C67   C89   S    
C68   C99   T    
C1    C72   S    
C31   C36   A    
C41   H23   S    
C34   C39   A    
C55   H22   S    
C62   H67   S    
O46   Zn9   S    
C62   C66   S    
O15   Zn6   S    
C121  H31   S    
C114  C116  A    
C122  H32   S    
C55   H84   S    
O25   Zn14  S    
C44   C48   S    
C4    C125  S    
C37   C41   A    
O34   Zn8   S    
O28   Zn2   S    
O29   Zn3   S    
O30   Zn4   S    
O12   Zn2   S    
O23   Zn3   S    
C14   H54   S    
C1    O14   A    
C112  C131  S    
C56   C74   S    
C66   H3    S    
C40   H12   S    
C91   H19   S    
C29   C38   S    
C83   H81   S    
C58   C76   S    
O3    Zn7   S    
C51   H75   S    
O8    Zn15  S    
C19   O29   A    
C95   H14   S    
C88   C92   S    
C40   C93   A    
O23   Zn7   S    
O49   Zn9   S    
C25   C126  S    
O51   Zn11  S    
C60   C69   S    
O35   Zn15  S    
C106  C110  T    
C133  H48   S    
C19   O3    A    
C68   C71   S    
O9    Zn16  S    
C86   C99   S    
C2    C43   A    
C30   C35   A    
C32   C44   A    
C32   C53   S    
C6    C10   A    
C17   O27   A    
C19   C119  S    
C18   O28   A    
O45   Zn1   S    
C62   H91   S    
C9    H50   S    
C76   C98   S    
C113  C118  A    
C55   C81   S    
C117  C121  A    
C20   O4    A    
C89   C102  S    
C24   C45   A    
C119  C123  A    
C60   O16   A    
C77   C108  S    
O26   Zn15  S    
C4    C8    A    
Br2   C83   S    
C28   O47   A    
C46   H66   S    
C58   H26   S    
C53   H73   S    
C92   H29   S    
O1    Zn5   S    
C131  H41   S    
C127  O49   A    
C59   C64   S    
C72   C102  T    
O34   Zn15  S    
C78   C109  S    
C132  C133  S    
C85   H83   S    
C22   O41   A    
C130  C131  S    
C133  H43   S    
C57   H86   S    
O1    Zn12  S    
C70   C101  T    
C57   C75   S    
C56   H24   S    
C73   C95   S    
C74   C105  S    
C57   H25   S    
C85   C89   S    
C6    C128  S    
C52   H76   S    
C87   C91   S    
C94   H30   S    
O6    Zn13  S    
O34   Zn4   S    
C50   H70   S    
C8    C9    A    
C132  H42   S    
C80   O21   A    
C10   C11   A    
C75   C97   S    
C130  H40   S    
O36   Zn5   S    
C65   C87   S    
O11   Zn3   S    
C29   O48   A    
C25   O43   A    
C128  O50   A    
C26   O44   A    
O41   Zn2   S    
C79   O20   A    
C28   O38   A    
C49   C70   S    
C77   O18   A    
C21   C24   S    
C8    H49   S    
C1    O5    A    
C81   H80   S    
C59   C73   S    
C3    C136  A    
O12   Zn9   S    
O43   Zn4   S    
C58   C85   S    
C79   O11   A    
C27   C36   S    
C38   C42   A    
C77   O9    A    
C14   C134  S    
C27   O46   A    
O10   Zn2   S    
O1    Zn1   S    
C59   H45   S    
O40   Zn16  S    
C120  C124  A    
C46   H62   S    
C31   C52   S    
C30   C51   S    
C90   H18   S    
C92   C97   S    
C65   H6    S    
C32   C37   A    
C113  C130  S    
C47   H63   S    
C86   C90   S    
C13   C104  A    
C91   C96   S    
O50   Zn10  S    
C43   C47   S    
C97   H16   S    
C116  C132  S    
C90   H27   S    
O5    Zn12  S    
C33   C45   A    
C93   H37   S    
O33   Zn14  S    
C104  H38   S    
O23   Zn14  S    
O12   Zn6   S    
C63   H92   S    
C74   C96   S    
C121  C122  A    
C25   O35   A    
C39   H1    S    
C26   O36   A    
Br3   C84   S    
C123  C124  A    
O39   Zn8   S    
C94   H21   S    
C61   C74   S    
O16   Zn7   S    
C127  O24   A    
C39   C82   A    
C66   C88   S    
C63   C76   S    
C52   H72   S    
C128  O25   A    
C16   C136  S    
C129  O51   A    
C5    C135  A    
C23   O33   A    
C53   H77   S    
C61   C65   S    
C76   C107  S    
O18   Zn1   S    
C63   C67   S    
C114  C119  A    
O2    Zn6   S    
C16   H57   S    
C48   C53   S    
C88   C101  S    
O24   Zn13  S    
C20   O30   A    
C66   H7    S    
C48   H64   S    
C71   O17   A    
C64   H5    S    
C67   H4    S    
C123  H33   S    
C11   H52   S    
C15   H55   S    
O1    Zn16  S    
C134  C135  A    
C87   C100  S    
C55   C73   S    
C3    C7    A    
O20   Zn10  S    
C13   C22   S    
O21   Zn11  S    
C17   O52   A    
C56   H85   S    
O22   Zn12  S    
C7    C129  S    
C21   O31   A    
C22   O32   A    
C45   C50   S    
C20   C120  S    
C112  C113  A    
C47   C52   S    
C60   O7    A    
C69   C100  T    
C84   C88   S    
C27   O37   A    
C125  O45   A    
C114  C133  S    
C33   C54   S    
C105  C109  T    
O7    Zn14  S    
C67   H8    S    
O13   Zn4   S    
C98   H17   S    
C56   C83   S    
O12   Zn13  S    
Br1   C81   S    
O27   Zn16  S    
O19   Zn9   S    
C78   O19   A    
C73   C103  S    
O32   Zn13  S    
C47   H68   S    
O17   Zn8   S    
C80   O13   A    
C118  C122  A    
C57   C84   S    
C54   H79   S    
C2    C23   S    
C36   C40   A    
C28   C37   S    
O4    Zn8   S    
C23   O42   A    
C10   H51   S    
C92   H20   S    
C80   C111  S    
C6    C136  A    
C132  H47   S    
C12   C135  S    
C64   H89   S    
C50   C54   S    
C30   C34   A    
C24   C115  A    
C49   O6    A    
O52   Zn5   S    
C35   C126  A    
O47   Zn10  S    
C46   C51   S    
C61   H56   S    
O37   Zn6   S    
C48   H69   S    
C90   C95   S    
C42   C115  A    
C82   H36   S    
C17   C117  S    
C21   O40   A    
C51   H71   S    
C35   C46   S    
C125  O22   A    
C12   C14   S    
C14   H59   S    
C107  C111  T    
C26   C34   S    
C89   C94   S    
C116  C120  A    
