data_mof_unit_66675.cif
_audit_creation_date              2013-03-05T15:59:00-0500
_audit_creation_method            fapswitch 2.2
_symmetry_space_group_name_H-M    P1
_symmetry_Int_Tables_number       1
_space_group_crystal_system       triclinic
_cell_length_a                    8.143706
_cell_length_b                    12.73311
_cell_length_c                    14.891867
_cell_angle_alpha                 96.967539
_cell_angle_beta                  97.550881
_cell_angle_gamma                 98.445095
_cell_volume                      1498.57106434

loop_
_atom_site_label
_atom_site_type_symbol
_atom_site_description
_atom_site_fract_x
_atom_site_fract_y
_atom_site_fract_z
_atom_type_partial_charge
P1    P     P_3+3 0.998730 0.403530 0.291970 0.457446
O1    O     O_2   0.827880 0.435260 0.277750 -0.369788
O2    O     O_3   0.100280 0.438960 0.391170 -0.409409
O3    O     O_3   0.625580 0.634130 0.333250 -0.376478
O4    O     O_2   0.711163 0.558857 0.174933 -0.393999
O5    O     O_3   0.955763 0.263390 0.268138 -0.565975
O6    O     O_3   0.647696 0.754549 0.187738 -0.524934
H1    H     H_    0.686397 0.872437 0.299259 0.132498
C1    C     C_3   0.520055 0.911321 0.187431 -1.001242
H2    H     H_    0.474109 0.973883 0.231656 0.252424
H3    H     H_    0.622235 0.949783 0.153804 0.284717
P2    P     P_3+3 0.687380 0.751030 0.571310 0.522319
P3    P     P_3+3 0.103400 0.828778 0.378271 0.444231
O7    O     O_2   0.857130 0.766340 0.543890 -0.336914
O8    O     O_3   0.056550 0.691050 0.379010 -0.386498
O9    O     O_2   0.984715 0.881668 0.435733 -0.391705
O10   O     O_3   0.723923 0.781758 0.691118 -0.513108
O11   O     O_3   0.044083 0.856354 0.267269 -0.517419
C2    C     C_3   0.071627 0.771644 0.204196 0.413349
H4    H     H_    0.988098 0.696181 0.209290 0.159132
H5    H     H_    0.204130 0.759122 0.215819 0.014777
C3    C     C_3   0.032480 0.798050 0.107543 -0.817330
H6    H     H_    0.898305 0.806403 0.092221 0.288126
H7    H     H_    0.111644 0.874411 0.100274 0.266855
C4    C     C_3   0.269224 0.779393 0.653173 0.467952
H8    H     H_    0.360894 0.738784 0.619810 0.076546
H9    H     H_    0.151008 0.770676 0.604945 0.126547
C5    C     C_3   0.340299 0.897924 0.679941 -0.995403
H10   H     H_    0.472314 0.906977 0.713522 0.266217
H11   H     H_    0.336157 0.939259 0.618649 0.232365
H12   H     H_    0.266425 0.936415 0.728185 0.299328
Ba1   Ba    Ba6+2 0.843750 0.550210 0.455600 1.557090
C6    C     C_3   0.931850 0.220054 0.348072 0.378971
H13   H     H_    0.816860 0.242398 0.370576 0.095045
H14   H     H_    0.039547 0.248366 0.403501 0.143549
C7    C     C_3   0.912899 0.098819 0.327251 -0.888605
H15   H     H_    0.803995 0.068093 0.273034 0.258528
H16   H     H_    0.892402 0.061902 0.389264 0.224933
H17   H     H_    0.028259 0.075995 0.303616 0.278343
C8    C     C_3   0.773704 0.695419 0.731269 0.284992
H18   H     H_    0.899348 0.684721 0.715568 0.092491
H19   H     H_    0.683301 0.620084 0.706681 0.087842
C9    C     C_3   0.779510 0.719808 0.834863 -0.123290
H20   H     H_    0.816653 0.652063 0.868501 0.060371
H21   H     H_    0.651773 0.729426 0.849426 0.127266
P4    P     P_3+3 0.190990 0.596560 0.708040 0.468226
O12   O     O_2   0.361830 0.564780 0.722310 -0.381271
O13   O     O_3   0.089430 0.561130 0.608830 -0.415135
O14   O     O_3   0.564130 0.365960 0.666760 -0.355644
O15   O     O_3   0.238873 0.736374 0.732361 -0.532573
P5    P     P_3+3 0.095929 0.172792 0.626334 0.462156
O16   O     O_3   0.601940 0.368240 0.453770 -0.392581
O17   O     O_3   0.133170 0.309040 0.621000 -0.371004
O18   O     O_2   0.217267 0.121811 0.569516 -0.387628
O19   O     O_3   0.163401 0.151764 0.738476 -0.522645
Ba2   Ba    Ba6+2 0.346090 0.449880 0.544410 1.548551
P6    P     P_3+3 0.587427 0.625945 0.214823 0.446352
C10   C     C_3   0.583778 0.830297 0.244567 0.450767
H22   H     H_    0.478740 0.795302 0.278031 0.033390
H23   H     H_    0.415584 0.870125 0.133502 0.265161
O20   O     O_3   0.587780 0.631850 0.546230 -0.411357
C11   C     C_3   0.414754 0.283063 0.265598 0.432120
H24   H     H_    0.299972 0.303420 0.291342 0.097937
H25   H     H_    0.515167 0.354667 0.280199 0.123234
C12   C     C_3   0.374406 0.250927 0.162316 -0.974719
H26   H     H_    0.271034 0.181048 0.145247 0.287048
H27   H     H_    0.334793 0.318660 0.129376 0.211313
H28   H     H_    0.487303 0.229304 0.134863 0.262076
P7    P     P_3+3 0.508642 0.233032 0.424558 0.422111
O21   O     O_2   0.332590 0.233690 0.456160 -0.374129
O22   O     O_3   0.467858 0.197035 0.305500 -0.581084
H29   H     H_    0.058018 0.732767 0.057400 0.215278
C13   C     C_3   0.118614 0.231583 0.800007 0.381409
H30   H     H_    0.185878 0.311972 0.793213 0.093734
H31   H     H_    0.981614 0.231604 0.787714 0.008132
C14   C     C_3   0.167365 0.211010 0.898207 -0.025627
H32   H     H_    0.306419 0.220879 0.916026 0.156172
H33   H     H_    0.123638 0.271281 0.945787 0.112151
P8    P     P_3+3 0.602611 0.373441 0.785025 0.445791
C15   C     C_3   0.607182 0.169126 0.758110 0.358405
H34   H     H_    0.711057 0.203959 0.723721 0.046860
O23   O     O_2   0.481622 0.442486 0.825289 -0.405937
O24   O     O_3   0.537079 0.245170 0.811094 -0.525603
H35   H     H_    0.507483 0.122819 0.703858 0.147386
H36   H     H_    0.768198 0.139539 0.876788 0.283512
C16   C     C_3   0.674030 0.093268 0.819726 -0.857912
H37   H     H_    0.734466 0.034381 0.780006 0.278039
H38   H     H_    0.569760 0.049798 0.848897 0.263894
C17   C     C_R   0.823993 0.431416 0.829703 0.169639
C18   C     C_R   0.894513 0.438258 0.922467 -0.023942
C19   C     C_R   0.038368 0.453476 0.109600 -0.033146
C20   C     C_R   0.878322 0.393644 0.076013 -0.064082
C21   C     C_R   0.806474 0.388291 0.985090 -0.183822
C22   C     C_R   0.108773 0.465495 0.203775 0.246330
H39   H     H_    0.805138 0.350416 0.119280 0.167876
H40   H     H_    0.681462 0.343045 0.964703 0.175904
C23   C     C_R   0.271576 0.521578 0.231798 -0.532855
C24   C     C_R   0.081856 0.532922 0.796091 0.253640
C25   C     C_R   0.151367 0.545524 0.890413 -0.022602
C26   C     C_R   0.059148 0.495286 0.953061 -0.009033
C27   C     C_R   0.310666 0.605992 0.924155 -0.039843
C28   C     C_R   0.383211 0.610590 0.014834 -0.189185
C29   C     C_R   0.295903 0.559745 0.077297 -0.026826
C30   C     C_R   0.130879 0.503246 0.046839 0.001885
C31   C     C_R   0.367510 0.565144 0.169747 0.184558
C32   C     C_R   0.920904 0.473994 0.767555 -0.555768
H41   H     H_    0.508380 0.655611 0.035019 0.184501
H42   H     H_    0.382881 0.649787 0.880969 0.161314
H43   H     H_    0.326792 0.528045 0.302808 0.186127
H44   H     H_    0.866784 0.465990 0.696243 0.187660
C33   C     C_R   0.777228 0.181145 0.535485 -0.552295
C34   C     C_R   0.422770 0.810773 0.463670 -0.547402
C35   C     C_R   0.390145 0.987881 0.432430 -0.175950
C36   C     C_R   0.324065 0.880082 0.427189 0.208841
C37   C     C_R   0.580880 0.849620 0.515350 0.345411
C38   C     C_R   0.647889 0.961716 0.526870 -0.157748
C39   C     C_R   0.551980 0.030269 0.480918 -0.126823
C40   C     C_R   0.618108 0.140260 0.486647 0.282500
C41   C     C_R   0.875549 0.115205 0.577726 0.075317
C42   C     C_R   0.808014 0.007510 0.579521 0.436807
H45   H     H_    0.311178 0.037589 0.399736 0.183143
H46   H     H_    0.828078 0.264955 0.537370 0.187063
H47   H     H_    0.371590 0.726280 0.456375 0.175216
N1    N     N_R   0.897991 0.817310 0.872973 0.286899
O25   O     O_R   0.058235 0.819558 0.873280 -0.381588
O26   O     O_R   0.845211 0.899502 0.913517 -0.345413
O27   O     O_3   0.091850 0.108383 0.910181 -0.647980
H48   H     H_    0.163651 0.057410 0.887543 0.385401
O28   O     O_3   0.890654 0.950295 0.638161 -0.688032
H49   H     H_    0.013129 0.970316 0.640989 0.349796

loop_
_geom_bond_atom_site_label_1
_geom_bond_atom_site_label_2
_geom_bond_distance
_ccdc_geom_bond_type
P6    C31   1.846114 S    
C27   C28   1.391745 A    
C28   C29   1.405231 A    
C13   H31   1.106664 S    
C13   H30   1.110435 S    
C2    H4    1.109514 S    
C19   C30   1.425207 A    
C15   H35   1.109506 S    
C34   C36   1.389262 A    
O8    Ba1   2.760986 S    
H36   C16   1.109899 S    
C4    C5    1.519421 S    
P3    O11   1.752130 S    
C33   C40   1.393359 A    
C33   C41   1.391047 A    
C5    H10   1.107934 S    
C2    H5    1.108113 S    
C14   H33   1.110166 S    
Ba1   O20   2.878021 S    
O11   C2    1.405924 S    
C16   H38   1.110566 S    
C37   C38   1.432378 A    
P7    C40   1.844643 S    
C26   C30   1.426772 A    
C6    C7    1.517997 S    
C38   C39   1.430019 A    
O1    Ba1   2.843879 S    
P1    O1    1.500791 D    
C18   C26   1.416214 A    
P7    O22   1.751367 S    
C4    O15   1.394764 S    
Ba1   O16   2.806720 S    
C15   C16   1.519703 S    
O16   P7    1.754335 S    
H1    C10   1.110422 S    
C8    C9    1.529343 S    
P1    C22   1.871815 S    
C12   H27   1.109628 S    
C17   C32   1.400477 A    
P5    C41   1.850914 S    
C1    H2    1.110577 S    
O6    C10   1.408058 S    
C11   H25   1.110598 S    
P3    C36   1.839141 S    
P2    C37   1.845608 S    
C23   C31   1.399554 A    
C27   H42   1.077279 S    
C8    H19   1.110289 S    
P4    C24   1.875736 S    
P2    Ba1   3.404928 S    
C33   H46   1.082129 S    
Ba1   O13   2.805484 S    
O2    Ba1   2.890998 S    
C15   O24   1.407639 S    
C3    H29   1.110329 S    
C5    H12   1.110429 S    
P4    O13   1.574138 S    
P1    O5    1.750104 S    
C2    C3    1.521405 S    
C14   H32   1.113424 S    
C34   H47   1.082140 S    
C19   C20   1.404963 A    
C16   H37   1.109787 S    
C22   C23   1.395024 A    
C4    H8    1.104556 S    
C20   H39   1.078860 S    
C38   C42   1.432564 A    
P1    O2    1.573984 S    
O10   C8    1.398981 S    
O3    P6    1.737693 S    
C9    H20   1.108234 S    
C11   H24   1.108676 S    
C23   H43   1.081784 S    
O2    Ba2   2.806225 S    
C25   C26   1.425272 A    
C12   H28   1.110888 S    
C6    H13   1.098990 S    
C28   H41   1.078914 S    
C29   C31   1.412272 A    
C9    H21   1.111043 S    
O3    Ba1   2.792401 S    
C35   C39   1.412821 A    
C8    H18   1.102845 S    
C25   C27   1.403460 A    
P2    O7    1.484676 D    
C12   H26   1.110800 S    
C21   H40   1.079168 S    
Ba2   O21   2.883124 S    
C1    H3    1.110111 S    
C13   C14   1.528292 S    
C3    H7    1.110171 S    
C10   H22   1.110210 S    
O27   H48   0.993478 S    
C7    H16   1.106539 S    
C18   C21   1.405070 A    
N1    O26   1.300612 A    
C35   C36   1.387714 A    
C32   H44   1.081647 S    
O17   Ba2   2.761558 S    
O13   Ba2   2.891831 S    
P4    O12   1.501022 D    
C1    C10   1.520468 S    
C11   C12   1.521849 S    
C42   O28   1.374827 S    
C3    H6    1.109874 S    
C7    H17   1.110494 S    
O7    Ba1   2.882799 S    
C15   H34   1.110546 S    
P8    O23   1.544365 D    
C41   C42   1.405306 A    
C4    H9    1.105673 S    
O14   Ba2   2.791760 S    
P4    O15   1.747894 S    
C24   C32   1.396079 A    
O5    C6    1.395742 S    
O4    P6    1.544359 D    
C1    H23   1.109543 S    
P5    O18   1.545510 D    
P3    O8    1.740809 S    
O28   H49   0.986528 S    
C39   C40   1.412865 A    
C19   C22   1.424729 A    
P8    O24   1.747968 S    
P2    O20   1.587965 S    
C5    H11   1.106778 S    
C20   C21   1.392122 A    
C6    H14   1.106895 S    
Ba1   Ba2   4.483769 S    
C11   O22   1.403410 S    
P5    O19   1.753010 S    
P1    Ba1   3.378676 S    
P7    O21   1.567481 D    
P8    C17   1.847331 S    
O19   C13   1.405847 S    
O14   P8    1.736238 S    
P2    O10   1.755499 S    
C35   H45   1.078536 S    
C7    H15   1.106682 S    
C24   C25   1.424374 A    
P3    O9    1.545546 D    
P4    Ba2   3.379214 S    
C29   C30   1.416342 A    
C14   O27   1.402469 S    
Ba2   O20   2.806182 S    
O12   Ba2   2.844433 S    
P5    O17   1.730105 S    
C17   C18   1.411874 A    
C9    N1    1.458662 S    
O6    P6    1.749649 S    
C34   C37   1.398222 A    
O16   Ba2   2.877280 S    
N1    O25   1.300482 A    
