data_mof_unit_31416.cif
_audit_creation_date              2012-12-11T17:06:36-0500
_audit_creation_method            fapswitch 2.2
_symmetry_space_group_name_H-M    P1
_symmetry_Int_Tables_number       1
_space_group_crystal_system       triclinic
_cell_length_a                    6.977925
_cell_length_b                    14.505548
_cell_length_c                    15.971919
_cell_angle_alpha                 90.44248
_cell_angle_beta                  89.96333
_cell_angle_gamma                 89.981678
_cell_volume                      1616.60707096

loop_
_atom_site_label
_atom_site_type_symbol
_atom_type_description
_atom_site_fract_x
_atom_site_fract_y
_atom_site_fract_z
_atom_type_partial_charge
O1    O     O_R   0.494400 0.415450 0.412630 -0.536109
O2    O     O_R   0.823940 0.405730 0.586760 -0.540320
O3    O     O_R   0.994240 0.584550 0.587370 -0.527753
C1    C     C_R   0.655166 0.383664 0.615278 0.714834
O4    O     O_R   0.824110 0.404430 0.413240 -0.546700
O5    O     O_R   0.994420 0.583240 0.412620 -0.541910
C2    C     C_R   0.655417 0.382168 0.384371 0.689104
O6    O     O_R   0.494230 0.416760 0.587380 -0.537337
O7    O     O_3   0.660800 0.558670 0.500000 -0.370947
V1    V     V_3+5 0.935650 0.489120 0.500000 1.410823
O8    O     O_R   0.324140 0.594270 0.413240 -0.540617
C3    C     C_R   0.155151 0.616246 0.384468 0.686501
O9    O     O_R   0.323960 0.595570 0.586760 -0.545858
C4    C     C_R   0.155208 0.617667 0.615439 0.717172
V2    V     V_3+5 0.435660 0.510880 0.500000 1.408644
O10   O     O_3   0.160640 0.441330 0.500000 -0.373982
C5    C     C_3   0.057357 0.670132 0.771327 0.383259
C6    C     C_3   0.229093 0.716037 0.815157 -0.196702
H1    H     H_    0.305382 0.688797 0.870692 0.109922
C7    C     C_3   0.121009 0.808821 0.810489 -0.054008
C8    C     C_3   0.946934 0.761737 0.768269 -0.172165
C9    C     C_3   0.037568 0.780505 0.681131 -0.194228
C10   C     C_3   0.210749 0.828655 0.724140 -0.124870
C11   C     C_3   0.318368 0.735034 0.727795 -0.160112
C12   C     C_3   0.145176 0.687653 0.685322 -0.025243
H2    H     H_    0.794167 0.771402 0.785684 0.115304
H3    H     H_    0.959936 0.806905 0.625612 0.114380
H4    H     H_    0.274674 0.895327 0.705000 0.106646
H5    H     H_    0.470971 0.724316 0.710607 0.126145
C13   C     C_R   0.274998 0.750479 0.187418 0.094210
C14   C     C_R   0.118405 0.810125 0.178872 -0.107539
C15   C     C_R   0.965763 0.799636 0.235769 -0.171897
H6    H     H_    0.842305 0.844301 0.231895 0.133871
C16   C     C_R   0.977282 0.736216 0.302082 -0.180914
H7    H     H_    0.861243 0.733113 0.346843 0.130015
C17   C     C_R   0.142443 0.681875 0.313863 -0.106763
C18   C     C_R   0.286800 0.688039 0.253216 0.102214
C19   C     C_3   0.495776 0.704907 0.264259 -0.415089
C20   C     C_3   0.482995 0.772571 0.192338 -0.395414
H8    H     H_    0.582934 0.642799 0.249168 0.171314
H9    H     H_    0.528124 0.738517 0.325403 0.172131
H10   H     H_    0.562214 0.749431 0.135542 0.170508
H11   H     H_    0.508638 0.845333 0.211644 0.177298
C21   C     C_R   0.491086 0.252036 0.687459 0.095401
C22   C     C_R   0.646979 0.312322 0.680875 -0.111966
C23   C     C_R   0.799702 0.300398 0.737323 -0.162614
H12   H     H_    0.922777 0.345413 0.734622 0.149321
C24   C     C_R   0.788655 0.234831 0.801726 -0.183158
H13   H     H_    0.904408 0.230614 0.846491 0.131628
C25   C     C_R   0.624013 0.179795 0.811793 -0.106405
C26   C     C_R   0.479707 0.187470 0.751417 0.099300
C27   C     C_3   0.270469 0.203451 0.762913 -0.416291
C28   C     C_3   0.282787 0.273535 0.692938 -0.394482
H14   H     H_    0.237508 0.234930 0.824934 0.173171
H15   H     H_    0.184069 0.141662 0.746088 0.170094
H16   H     H_    0.256313 0.345578 0.714242 0.179266
H17   H     H_    0.204005 0.252150 0.635522 0.171078
C29   C     C_R   0.484604 0.310052 0.261960 0.041701
C30   C     C_R   0.646914 0.316019 0.313225 -0.074239
C31   C     C_R   0.800613 0.256416 0.295046 -0.194283
H18   H     H_    0.925139 0.256209 0.335012 0.129819
C32   C     C_R   0.788756 0.191768 0.229027 -0.196330
H19   H     H_    0.904268 0.143772 0.218888 0.144448
C33   C     C_R   0.622980 0.183898 0.179793 -0.053564
C34   C     C_R   0.471536 0.243999 0.197815 0.066464
C35   C     C_3   0.272671 0.218836 0.222688 0.187172
C36   C     C_3   0.284258 0.293661 0.289685 -0.456331
H20   H     H_    0.166651 0.231343 0.172187 0.094796
H21   H     H_    0.275982 0.268010 0.355074 0.178622
H22   H     H_    0.190962 0.353947 0.276430 0.144603
O11   O     O_R   0.771650 0.079500 0.908680 -0.540835
O12   O     O_R   0.441690 0.091800 0.082800 -0.525021
O13   O     O_R   0.271460 0.912980 0.083410 -0.531650
C37   C     C_R   0.610456 0.113637 0.112059 0.708902
O14   O     O_R   0.441930 0.090510 0.909280 -0.542972
O15   O     O_R   0.271690 0.911670 0.908660 -0.537862
C38   C     C_R   0.611010 0.112825 0.880977 0.688882
O16   O     O_R   0.771410 0.080810 0.083440 -0.546193
O17   O     O_3   0.605100 0.937580 0.996050 -0.372381
V3    V     V_3+5 0.330220 0.007110 0.996030 1.424444
O18   O     O_R   0.941980 0.900620 0.909250 -0.543406
C39   C     C_R   0.110763 0.878508 0.880595 0.690354
O19   O     O_R   0.941740 0.901920 0.082770 -0.545915
C40   C     C_R   0.110435 0.880177 0.111741 0.710333
V4    V     V_3+5 0.830220 0.985300 0.996000 1.396106
O20   O     O_3   0.105210 0.054870 0.996020 -0.371320
O21   O     O_3   0.977270 0.585868 0.794805 -0.658774
H23   H     H_    0.930399 0.595480 0.852817 0.273355
O22   O     O_3   0.268048 0.129135 0.255563 -0.633869
H24   H     H_    0.165299 0.127489 0.298389 0.282784

loop_
_geom_bond_atom_site_label_1
_geom_bond_atom_site_label_2
_ccdc_geom_bond_type
C35   H20   S    
O21   H23   S    
C7    C39   S    
O11   C38   A    
C1    O6    A    
O18   C39   A    
V4    O20   S    
C27   C28   S    
C32   H19   S    
C6    C11   S    
C17   C18   A    
C16   H7    S    
O5    C3    A    
C19   C20   S    
V2    O10   S    
C31   C32   A    
C6    H1    S    
C20   H10   S    
V3    O20   S    
O11   V4    S    
O8    V2    S    
C21   C28   S    
O19   C40   A    
C9    C12   S    
C32   C33   A    
C10   C11   S    
O1    V2    S    
C3    C17   S    
O14   V3    S    
O13   C40   A    
C16   C17   A    
C27   H15   S    
C24   C25   A    
C35   C36   S    
C30   C31   A    
O1    C2    A    
C8    C9    S    
C2    C30   S    
C8    H2    S    
C27   H14   S    
C25   C26   A    
C35   O22   S    
C1    C22   S    
C23   C24   A    
C26   C27   S    
C11   C12   S    
C19   H9    S    
O12   C37   A    
O15   C39   A    
O4    C2    A    
C28   H17   S    
C20   H11   S    
C29   C30   A    
C22   C23   A    
C5    C8    S    
C14   C40   S    
C13   C18   A    
C31   H18   S    
C36   H21   S    
C15   C16   A    
O2    C1    A    
C18   C19   S    
C29   C34   A    
C14   C15   A    
C7    C10   S    
C5    C6    S    
C10   H4    S    
O14   C38   A    
O3    C4    A    
O16   V4    S    
C24   H13   S    
O19   V4    S    
O6    V2    S    
C9    H3    S    
O9    V2    S    
O2    V1    S    
C25   C38   S    
O17   V4    S    
C21   C22   A    
C21   C26   A    
O7    V1    S    
C28   H16   S    
C23   H12   S    
C5    O21   S    
O15   V3    S    
O5    V1    S    
O8    C3    A    
C36   H22   S    
C5    C12   S    
C15   H6    S    
O7    V2    S    
O4    V1    S    
O12   V3    S    
O3    V1    S    
V1    O10   S    
C33   C34   A    
C19   H8    S    
C13   C14   A    
O13   V3    S    
C13   C20   S    
C6    C7    S    
C4    C12   S    
O17   V3    S    
C29   C36   S    
C11   H5    S    
C7    C8    S    
C34   C35   S    
C37   O16   A    
C33   C37   S    
C9    C10   S    
O22   H24   S    
O9    C4    A    
O18   V4    S    
