data_mof_unit_15536.cif
_audit_creation_date              2012-10-26T20:13:50-0400
_audit_creation_method            fapswitch 2.2
_symmetry_space_group_name_H-M    P1
_symmetry_Int_Tables_number       1
_space_group_crystal_system       triclinic
_cell_length_a                    8.742964
_cell_length_b                    10.855456
_cell_length_c                    9.544877
_cell_angle_alpha                 89.99687
_cell_angle_beta                  97.487859
_cell_angle_gamma                 90.226806
_cell_volume                      898.161262206

loop_
_atom_site_label
_atom_site_type_symbol
_atom_type_description
_atom_site_fract_x
_atom_site_fract_y
_atom_site_fract_z
_atom_type_partial_charge
C1    C     C_R   0.500112 0.262703 0.499888 0.544424
C2    C     C_R   0.563701 0.596091 0.933722 0.173313
C3    C     C_3   0.727217 0.638569 0.946892 -0.264455
C4    C     C_R   0.204208 0.495951 0.464728 0.538355
C5    C     C_3   0.727507 0.638150 0.105824 -0.277616
C6    C     C_R   0.500422 0.737278 0.499920 0.566356
C7    C     C_R   0.795466 0.491645 0.535839 0.573423
C8    C     C_2   0.038750 0.498922 0.448860 -0.166466
C9    C     C_2   0.958577 0.464770 0.553735 -0.014740
C10   C     C_R   0.481253 0.061970 0.617544 0.002679
C11   C     C_R   0.502448 0.130095 0.498661 0.015538
C12   C     C_R   0.526322 0.935440 0.375593 -0.150406
C13   C     C_R   0.526136 0.064674 0.375512 -0.149947
C14   C     C_2   0.024885 0.387273 0.676253 0.245121
C15   C     C_R   0.502654 0.869890 0.498787 0.017851
C16   C     C_R   0.480979 0.937930 0.617622 0.042889
C17   C     C_3   0.446152 0.929356 0.766181 -0.025700
C18   C     C_3   0.446036 0.071381 0.765672 -0.247599
C19   C     C_R   0.563721 0.596113 0.081106 0.167531
C20   C     C_R   0.423453 0.411797 0.065301 0.009252
C21   C     C_R   0.423463 0.411806 0.916456 0.017504
Cu1   Cu    Cu3+1 0.499990 0.499980 0.640670 1.000852
Cu2   Cu    Cu3+1 0.500010 0.500020 0.359330 0.956539
H1    H     H_    0.982903 0.542830 0.353838 0.113742
H2    H     H_    0.331113 0.113031 0.771412 0.153634
H3    H     H_    0.542967 0.112864 0.837411 0.132905
H4    H     H_    0.363829 0.339074 0.113867 0.124601
H5    H     H_    0.126431 0.331572 0.669656 0.110569
H6    H     H_    0.363932 0.339127 0.853757 0.107912
H7    H     H_    0.805802 0.568653 0.910645 0.206909
H8    H     H_    0.738611 0.732292 0.902638 0.132256
H9    H     H_    0.805240 0.567111 0.159000 0.157649
H10   H     H_    0.739560 0.731573 0.153749 0.128721
H11   H     H_    0.544288 0.112605 0.279483 0.137988
H12   H     H_    0.544670 0.887611 0.279627 0.138896
H13   H     H_    0.542946 0.889212 0.838471 0.125722
I1    I     I_    0.223718 0.849594 0.778952 -0.383505
N1    N     N_R   0.500980 0.500930 0.148050 -0.234932
N2    N     N_R   0.500990 0.500890 0.852140 -0.226761
O1    O     O_R   0.500000 0.319640 0.618810 -0.513442
O2    O     O_R   0.500020 0.319680 0.381230 -0.521637
O3    O     O_R   0.274830 0.499980 0.591380 -0.495130
O4    O     O_R   0.274850 0.500020 0.353800 -0.489097
O5    O     O_R   0.499980 0.680320 0.618770 -0.483748
O6    O     O_R   0.500000 0.680360 0.381190 -0.506447
O7    O     O_R   0.725150 0.499980 0.646200 -0.456879
O8    O     O_R   0.725170 0.500020 0.408620 -0.527790
O9    O     O_2   0.964437 0.382004 0.784413 -0.506831

loop_
_geom_bond_atom_site_label_1
_geom_bond_atom_site_label_2
_ccdc_geom_bond_type
C3    H7    S    
C14   O9    D    
C9    C14   S    
C14   H5    S    
C5    C19   S    
C17   H13   S    
Cu2   N1    S    
C20   N1    A    
C1    C11   S    
C12   C15   A    
C4    C8    S    
C5    H9    S    
Cu1   O1    S    
C18   H3    S    
C2    C3    S    
C2    C19   A    
C13   H11   S    
C10   C16   A    
C20   C21   A    
C12   H12   S    
C3    H8    S    
C11   C13   A    
Cu1   O3    S    
C18   H2    S    
C4    O3    A    
C10   C18   S    
Cu2   O6    S    
Cu1   N2    S    
C2    N2    A    
C1    O2    A    
C20   H4    S    
C4    O4    A    
C17   C18   S    
C5    H10   S    
Cu2   O8    S    
C10   C11   A    
C6    O6    A    
C15   C16   A    
Cu1   O7    S    
C7    O7    A    
C19   N1    A    
Cu2   O4    S    
C12   C13   A    
C6    O5    A    
C7    C9    S    
Cu1   Cu2   S    
C16   C17   S    
C17   I1    S    
C1    O1    A    
C8    H1    S    
C6    C15   S    
C21   H6    S    
C21   N2    A    
Cu1   O5    S    
C7    O8    A    
C8    C9    D    
C3    C5    S    
Cu2   O2    S    
