data_mof_unit_42602.cif
_audit_creation_date              2012-12-10T17:33:44-0500
_audit_creation_method            fapswitch 2.2
_symmetry_space_group_name_H-M    P1
_symmetry_Int_Tables_number       1
_space_group_crystal_system       triclinic
_cell_length_a                    11.686247
_cell_length_b                    12.313439
_cell_length_c                    13.16861
_cell_angle_alpha                 116.487342
_cell_angle_beta                  78.139363
_cell_angle_gamma                 100.939688
_cell_volume                      1649.37557673

loop_
_atom_site_label
_atom_site_type_symbol
_atom_type_description
_atom_site_fract_x
_atom_site_fract_y
_atom_site_fract_z
_atom_type_partial_charge
C1    C     C_R   0.509904 0.854849 0.286592 0.767972
C2    C     C_R   0.459936 0.227840 0.834491 -0.038189
C3    C     C_R   0.585237 0.815573 0.085441 -0.167005
C4    C     C_R   0.608313 0.736829 0.970706 -0.125909
C5    C     C_R   0.568168 0.613322 0.933029 -0.163845
C6    C     C_R   0.499384 0.566247 0.009633 0.089383
C7    C     C_R   0.464594 0.649546 0.123913 0.078987
C8    C     C_R   0.462784 0.439493 0.976304 0.091065
C9    C     C_R   0.384120 0.399407 0.053637 0.157365
C10   C     C_R   0.340318 0.484357 0.160691 -0.205611
C11   C     C_R   0.378125 0.607621 0.194568 -0.186585
C12   C     C_R   0.715712 0.999491 0.499893 0.820459
C13   C     C_R   0.502539 0.350949 0.868429 -0.192331
C14   C     C_R   0.384526 0.189150 0.912249 -0.165238
C15   C     C_R   0.516252 0.772882 0.163662 -0.105356
C16   C     C_R   0.668601 0.331207 0.309120 0.345380
C17   C     C_R   0.342816 0.760642 0.645136 0.003114
C18   C     C_R   0.294916 0.657871 0.663827 -0.294003
C19   C     C_R   0.341143 0.546198 0.597551 0.410075
C20   C     C_R   0.449407 0.543189 0.522655 -0.107903
C21   C     C_R   0.489602 0.649364 0.501046 0.239842
C22   C     C_R   0.517841 0.440571 0.465231 -0.047926
C23   C     C_R   0.483239 0.145066 0.713377 0.811152
C24   C     C_R   0.607867 0.436126 0.372769 0.020633
C25   C     C_R   0.638471 0.538308 0.348977 -0.173374
C26   C     C_R   0.584803 0.643519 0.415000 -0.169772
C27   C     C_R   0.506460 0.345537 0.500213 0.099209
C28   C     C_R   0.644530 0.236830 0.344020 -0.010282
C29   C     C_R   0.284285 0.000554 0.500170 0.828611
C30   C     C_1   0.837313 0.998982 0.500099 -0.149888
C31   C     C_1   0.939982 0.999555 0.500109 0.038482
C32   C     C_1   0.060043 0.000607 0.500046 0.025996
C33   C     C_1   0.162695 0.001096 0.500023 -0.153285
C34   C     C_R   0.347436 0.274635 0.021769 -0.145077
Cu1   Cu    Cu3+1 0.526510 0.098270 0.475420 0.989129
Cu2   Cu    Cu3+1 0.473490 0.901730 0.524580 0.944209
H1    H     H_    0.350562 0.093906 0.886992 0.151392
H2    H     H_    0.708899 0.541186 0.282422 0.221297
H3    H     H_    0.451731 0.349950 0.577694 0.194521
H4    H     H_    0.301372 0.843958 0.692565 0.155495
H5    H     H_    0.215417 0.663480 0.724273 0.198085
H6    H     H_    0.620880 0.718546 0.394522 0.203157
H7    H     H_    0.276100 0.455487 0.218557 0.173352
H8    H     H_    0.660871 0.771069 0.910979 0.160582
H9    H     H_    0.335803 0.669322 0.275755 0.181699
N1    N     N_R   0.566700 0.246290 0.438210 -0.227645
N2    N     N_R   0.434010 0.754320 0.561170 -0.200588
O1    O     O_R   0.533340 0.972510 0.318140 -0.581387
O2    O     O_R   0.488570 0.806530 0.359650 -0.604720
O3    O     O_R   0.685190 0.083000 0.479260 -0.563080
O4    O     O_R   0.640410 0.917020 0.520770 -0.591073
O5    O     O_R   0.511430 0.193470 0.640350 -0.583105
O6    O     O_R   0.466660 0.027490 0.681860 -0.587104
O7    O     O_R   0.359590 0.082980 0.479230 -0.536000
O8    O     O_R   0.314810 0.917000 0.520740 -0.586037
S1    S     S_3+6 0.772642 0.313304 0.185337 -0.014244
O9    O     O_2   0.811896 0.187634 0.128968 -0.297466
O10   O     O_2   0.717677 0.332710 0.101856 -0.292622
O11   O     O_3   0.890178 0.417612 0.223674 -0.538171
H10   H     H_    0.941294 0.407423 0.150687 0.381370
S2    S     S_3+6 0.242583 0.414760 0.591464 -0.015742
O12   O     O_2   0.257227 0.381434 0.684512 -0.314960
O13   O     O_2   0.118183 0.442947 0.610244 -0.271285
O14   O     O_3   0.265789 0.296338 0.462707 -0.537629
H11   H     H_    0.199227 0.233139 0.462648 0.379348
H12   H     H_    0.287280 0.243627 0.080436 0.154473
H13   H     H_    0.565941 0.375114 0.807875 0.145182
H14   H     H_    0.624021 0.909739 0.113387 0.176170
H15   H     H_    0.590446 0.558008 0.842896 0.132655
H16   H     H_    0.687981 0.154866 0.296466 0.174593

loop_
_geom_bond_atom_site_label_1
_geom_bond_atom_site_label_2
_ccdc_geom_bond_type
C16   C28   A    
S2    O14   S    
C12   O3    A    
C21   C26   A    
C16   S1    S    
C1    O1    A    
C14   C34   A    
C6    C7    A    
C1    C15   S    
C25   H2    S    
C29   O8    A    
C9    C10   A    
Cu1   Cu2   S    
S1    O11   S    
C30   C31   T    
S2    O12   D    
C32   C33   T    
C34   H12   S    
Cu1   O3    S    
C7    C15   A    
C17   C18   A    
C25   C26   A    
O11   H10   S    
C16   C24   A    
Cu2   O8    S    
C21   N2    A    
C24   C25   A    
Cu1   O7    S    
C7    C11   A    
C28   N1    A    
C23   O5    A    
C9    C34   A    
Cu2   O4    S    
C19   S2    S    
C6    C8    A    
Cu1   O1    S    
C27   N1    A    
C3    H14   S    
S1    O10   D    
C23   O6    A    
C22   C27   A    
O14   H11   S    
C13   H13   S    
C5    C6    A    
C2    C14   A    
C22   C24   A    
C11   H9    S    
C29   O7    A    
C3    C4    A    
C8    C13   A    
C29   C33   S    
Cu1   O5    S    
C12   O4    A    
C3    C15   A    
S1    O9    D    
C26   H6    S    
Cu2   N2    S    
C20   C21   A    
C18   C19   A    
C10   C11   A    
C18   H5    S    
C27   H3    S    
C2    C23   S    
S2    O13   D    
C2    C13   A    
C8    C9    A    
C5    H15   S    
Cu2   O6    S    
C4    H8    S    
C12   C30   S    
C10   H7    S    
Cu1   N1    S    
C1    O2    A    
C31   C32   S    
C28   H16   S    
Cu2   O2    S    
C19   C20   A    
C17   N2    A    
C20   C22   A    
C4    C5    A    
C14   H1    S    
C17   H4    S    
