data_mof_unit_66120.cif
_audit_creation_date              2012-12-11T16:01:50-0500
_audit_creation_method            fapswitch 2.2
_symmetry_space_group_name_H-M    P1
_symmetry_Int_Tables_number       1
_space_group_crystal_system       triclinic
_cell_length_a                    6.965358
_cell_length_b                    20.125762
_cell_length_c                    21.705123
_cell_angle_alpha                 92.763812
_cell_angle_beta                  88.713396
_cell_angle_gamma                 90.851528
_cell_volume                      3038.09748596

loop_
_atom_site_label
_atom_site_type_symbol
_atom_type_description
_atom_site_fract_x
_atom_site_fract_y
_atom_site_fract_z
_atom_type_partial_charge
O1    O     O_R   0.616490 0.310280 0.688420 -0.521956
O2    O     O_R   0.383510 0.689720 0.311580 -0.521955
O3    O     O_R   0.286290 0.319340 0.804930 -0.523227
O4    O     O_R   0.713710 0.680660 0.195070 -0.523227
O5    O     O_R   0.115970 0.195830 0.805340 -0.523579
O6    O     O_R   0.884030 0.804170 0.194660 -0.523579
C1    C     C_R   0.454703 0.337124 0.827603 0.725070
C2    C     C_R   0.545297 0.662876 0.172397 0.725070
O7    O     O_R   0.286780 0.317900 0.688830 -0.522439
O8    O     O_R   0.713220 0.682100 0.311170 -0.522439
O9    O     O_R   0.116460 0.194390 0.688410 -0.521430
O10   O     O_R   0.883540 0.805610 0.311590 -0.521430
C3    C     C_R   0.458087 0.335655 0.666366 0.693668
C4    C     C_R   0.541913 0.664344 0.333634 0.693667
O11   O     O_R   0.616000 0.311730 0.805350 -0.519305
O12   O     O_R   0.384000 0.688270 0.194650 -0.519305
O13   O     O_3   0.449750 0.212530 0.746880 -0.348492
O14   O     O_3   0.550250 0.787470 0.253120 -0.348492
V1    V     V_3+5 0.174900 0.260570 0.746880 1.433745
V2    V     V_3+5 0.825100 0.739430 0.253120 1.433745
O15   O     O_R   0.786740 0.186770 0.688820 -0.523503
O16   O     O_R   0.213260 0.813230 0.311180 -0.523503
C5    C     C_R   0.956248 0.168643 0.666628 0.712431
C6    C     C_R   0.043752 0.831357 0.333371 0.712431
O17   O     O_R   0.786260 0.188210 0.804930 -0.526731
O18   O     O_R   0.213740 0.811790 0.195070 -0.526731
C7    C     C_R   0.952289 0.173358 0.824601 0.740797
C8    C     C_R   0.047711 0.826642 0.175399 0.740798
V3    V     V_3+5 0.674900 0.245540 0.746880 1.446103
V4    V     V_3+5 0.325100 0.754460 0.253120 1.446103
O19   O     O_3   0.949920 0.293580 0.746880 -0.361125
O20   O     O_3   0.050080 0.706420 0.253120 -0.361126
C9    C     C_3   0.085092 0.032171 0.048395 -0.202321
C10   C     C_3   0.914908 0.967829 0.951604 -0.202321
C11   C     C_3   0.887754 0.050097 0.022509 -0.181022
C12   C     C_3   0.112246 0.949903 0.977491 -0.181022
H1    H     H_    0.793886 0.091415 0.039599 0.176977
H2    H     H_    0.206114 0.908585 0.960401 0.176977
H3    H     H_    0.157451 0.057089 0.088463 0.164656
H4    H     H_    0.842548 0.942911 0.911537 0.164656
C13   C     C_1   0.953998 0.126799 0.870377 -0.144310
C14   C     C_1   0.046002 0.873201 0.129623 -0.144310
C15   C     C_3   0.169346 0.024337 0.982137 0.362187
C16   C     C_3   0.830654 0.975663 0.017863 0.362187
C17   C     C_3   0.974131 0.041595 0.956971 0.047873
C18   C     C_3   0.025869 0.958405 0.043029 0.047873
C19   C     C_1   0.957989 0.087863 0.909502 0.072277
C20   C     C_1   0.042011 0.912137 0.090498 0.072277
C21   C     C_1   0.032026 0.884044 0.384699 -0.207345
C22   C     C_1   0.967974 0.115956 0.615301 -0.207345
C23   C     C_1   0.020616 0.927344 0.427546 0.004805
C24   C     C_1   0.979384 0.072656 0.572454 0.004805
C25   C     C_1   0.006183 0.978461 0.478494 0.003757
C26   C     C_1   0.993817 0.021539 0.521506 0.003757
C27   C     C_1   0.464906 0.388493 0.880487 -0.210387
C28   C     C_1   0.535094 0.611507 0.119512 -0.210387
C29   C     C_1   0.476912 0.430235 0.924815 0.008957
C30   C     C_1   0.523088 0.569765 0.075185 0.008957
C31   C     C_1   0.493021 0.479352 0.977696 0.004845
C32   C     C_1   0.506979 0.520648 0.022304 0.004845
C33   C     C_1   0.472495 0.387098 0.614823 -0.205795
C34   C     C_1   0.527505 0.612902 0.385176 -0.205796
C35   C     C_1   0.483016 0.429025 0.572308 0.013258
C36   C     C_1   0.516984 0.570975 0.427692 0.013258
C37   C     C_1   0.495033 0.479095 0.521313 -0.000754
C38   C     C_1   0.504967 0.520905 0.478687 -0.000754
Br1   Br    Br    0.590861 0.936834 0.046955 -0.567682
Br2   Br    Br    0.409139 0.063166 0.953044 -0.567682

loop_
_geom_bond_atom_site_label_1
_geom_bond_atom_site_label_2
_ccdc_geom_bond_type
C12   C15   S    
C22   C24   T    
C35   C37   S    
C11   C17   S    
C12   C18   S    
O5    V1    S    
V4    O20   S    
C8    C14   S    
O17   C7    A    
O11   V3    S    
O13   V3    S    
C30   C32   S    
O10   C6    A    
C9    C18   S    
O8    V2    S    
C1    C27   S    
O4    C2    A    
V1    O19   S    
C2    C28   S    
C1    O11   A    
C13   C19   T    
C24   C26   S    
C31   C32   T    
C2    O12   A    
C10   C17   S    
C14   C20   T    
C25   C26   T    
O3    V1    S    
C11   C16   S    
C15   C17   S    
C9    C11   S    
O10   V2    S    
C9    H3    S    
C5    C22   S    
O6    V2    S    
V2    O20   S    
O14   V4    S    
C10   H4    S    
O1    V3    S    
O18   C8    A    
C11   H1    S    
C28   C30   T    
O18   V4    S    
O3    C1    A    
C10   C12   S    
C27   C29   T    
O15   C5    A    
O17   V3    S    
O2    C4    A    
O16   C6    A    
C29   C31   S    
O1    C3    A    
O2    V4    S    
C23   C25   S    
O12   V4    S    
C12   H2    S    
O4    V2    S    
C18   C20   S    
C3    C33   S    
O14   V2    S    
V3    O19   S    
C37   C38   T    
O8    C4    A    
C17   C19   S    
O9    C5    A    
C6    C21   S    
C33   C35   T    
C10   C16   S    
O7    C3    A    
O9    V1    S    
C16   Br1   S    
C34   C36   T    
C36   C38   S    
O16   V4    S    
O13   V1    S    
O5    C7    A    
C9    C15   S    
O15   V3    S    
O7    V1    S    
O6    C8    A    
C16   C18   S    
C7    C13   S    
C21   C23   T    
C15   Br2   S    
C4    C34   S    
