data_mof_unit_39274.cif
_audit_creation_date              2012-12-10T17:11:58-0500
_audit_creation_method            fapswitch 2.2
_symmetry_space_group_name_H-M    P1
_symmetry_Int_Tables_number       1
_space_group_crystal_system       triclinic
_cell_length_a                    11.673715
_cell_length_b                    12.998251
_cell_length_c                    15.679337
_cell_angle_alpha                 91.944578
_cell_angle_beta                  73.759549
_cell_angle_gamma                 99.827432
_cell_volume                      2250.45547454

loop_
_atom_site_label
_atom_site_type_symbol
_atom_type_description
_atom_site_fract_x
_atom_site_fract_y
_atom_site_fract_z
_atom_type_partial_charge
C1    C     C_R   0.520432 0.700795 0.502035 0.808835
C2    C     C_R   0.479128 0.299143 0.498976 0.809710
C3    C     C_R   0.353766 0.548304 0.092681 0.319763
C4    C     C_R   0.643827 0.591104 0.913292 0.337808
C5    C     C_R   0.268219 0.535054 0.043471 0.334336
C6    C     C_R   0.730172 0.590651 0.960108 0.347109
C7    C     C_R   0.466867 0.185690 0.498980 -0.055450
C8    C     C_R   0.531640 0.814106 0.504582 -0.050196
C9    C     C_R   0.648693 0.984298 0.515125 -0.218702
C10   C     C_R   0.348620 0.015345 0.491005 -0.216522
C11   C     C_R   0.638281 0.876204 0.513769 -0.195981
C12   C     C_R   0.359653 0.123462 0.491019 -0.194896
C13   C     C_R   0.434851 0.860694 0.497913 -0.272929
C14   C     C_R   0.562958 0.139065 0.507236 -0.266238
C15   C     C_R   0.444753 0.968693 0.498766 0.175266
C16   C     C_R   0.552668 0.031001 0.507161 0.175495
C17   C     C_R   0.937351 0.590904 0.586927 -0.345940
C18   C     C_R   0.063044 0.409800 0.412540 -0.353009
C19   C     C_R   0.819704 0.582805 0.577992 0.100410
C20   C     C_R   0.180539 0.417559 0.421710 0.100767
C21   C     C_R   0.861671 0.461869 0.461454 0.014915
C22   C     C_R   0.138571 0.538583 0.538207 0.006761
C23   C     C_R   0.426584 0.496381 0.668715 0.798333
C24   C     C_R   0.573486 0.506052 0.331273 0.798593
C25   C     C_R   0.981145 0.467698 0.467843 0.062594
C26   C     C_R   0.019259 0.533038 0.531595 0.065724
C27   C     C_R   0.382504 0.503579 0.765843 -0.088477
C28   C     C_R   0.618066 0.521256 0.234355 -0.084561
C29   C     C_R   0.223103 0.518760 0.900363 -0.135237
C30   C     C_R   0.777765 0.575713 0.100577 -0.154161
C31   C     C_R   0.261146 0.508716 0.808374 -0.218574
C32   C     C_R   0.740696 0.553743 0.191565 -0.214526
C33   C     C_R   0.465240 0.512061 0.816017 -0.165609
C34   C     C_R   0.533780 0.511573 0.185268 -0.157908
C35   C     C_R   0.431724 0.535174 0.906878 0.048484
C36   C     C_R   0.566818 0.545547 0.096334 0.045590
C37   C     C_R   0.307148 0.529908 0.950661 0.000148
C38   C     C_R   0.692058 0.571015 0.052006 -0.010569
C39   C     C_R   0.518748 0.557224 0.955472 -0.152795
C40   C     C_R   0.479056 0.548727 0.049428 -0.162423
Cu1   Cu    Cu3+1 0.386820 0.492450 0.493500 0.927340
Cu2   Cu    Cu3+1 0.613180 0.507550 0.506500 0.932942
H1    H     H_    0.243106 0.372715 0.378789 0.125154
H2    H     H_    0.757253 0.627649 0.620855 0.138976
H3    H     H_    0.963797 0.641824 0.636756 0.141340
H4    H     H_    0.036598 0.358892 0.362729 0.136932
H5    H     H_    0.442737 0.474174 0.217308 0.197728
H6    H     H_    0.555692 0.498283 0.783472 0.200279
H7    H     H_    0.807826 0.561832 0.228147 0.162939
H8    H     H_    0.195705 0.504093 0.770690 0.146113
H9    H     H_    0.128144 0.519222 0.931754 0.180026
H10   H     H_    0.873673 0.598071 0.068749 0.190731
H11   H     H_    0.284392 0.158215 0.484685 0.157173
H12   H     H_    0.713636 0.841391 0.519832 0.159303
H13   H     H_    0.731674 0.031222 0.522039 0.136689
H14   H     H_    0.265309 0.968420 0.484776 0.136170
H15   H     H_    0.169188 0.588817 0.586754 0.117835
H16   H     H_    0.831035 0.411622 0.412945 0.114566
N1    N     N_R   0.216750 0.481110 0.483710 -0.184231
N2    N     N_R   0.783250 0.518890 0.516290 -0.181420
O1    O     O_R   0.419950 0.645670 0.495380 -0.590877
O2    O     O_R   0.580050 0.354330 0.504620 -0.585238
O3    O     O_R   0.611110 0.658410 0.506370 -0.592266
O4    O     O_R   0.388890 0.341590 0.493630 -0.588904
O5    O     O_R   0.350820 0.490050 0.621260 -0.580227
O6    O     O_R   0.649180 0.509950 0.378740 -0.580160
O7    O     O_R   0.541970 0.502800 0.632250 -0.588511
O8    O     O_R   0.458030 0.497200 0.367750 -0.591356
O9    O     O_3   0.145938 0.532253 0.085461 -0.624180
C41   C     C_3   0.098991 0.446050 0.145438 0.115232
H17   H     H_    0.067498 0.476977 0.213451 0.177507
H18   H     H_    0.165459 0.394007 0.146764 0.135277
C42   C     C_3   0.991640 0.379753 0.121204 -0.392774
H19   H     H_    0.925859 0.430029 0.116640 0.230253
H20   H     H_    0.024092 0.343953 0.055325 0.220130
C43   C     C_3   0.927752 0.293709 0.190355 -0.921393
H21   H     H_    0.991674 0.241974 0.196467 0.253486
H22   H     H_    0.851731 0.246090 0.169837 0.264081
H23   H     H_    0.890642 0.328289 0.255964 0.246099
O10   O     O_3   0.853071 0.611367 0.916619 -0.612943
C44   C     C_3   0.887208 0.529196 0.857965 0.074996
H24   H     H_    0.983599 0.553555 0.820457 0.155228
H25   H     H_    0.836046 0.516733 0.807377 0.179960
C45   C     C_3   0.875411 0.426003 0.907556 -0.410650
H26   H     H_    0.925306 0.439436 0.958625 0.220275
H27   H     H_    0.778758 0.396447 0.941564 0.215256
C46   C     C_3   0.924739 0.342298 0.844025 -0.905062
H28   H     H_    0.874625 0.326882 0.792975 0.258696
H29   H     H_    0.913580 0.268805 0.881792 0.258984
H30   H     H_    0.022375 0.367236 0.810651 0.254941
O11   O     O_3   0.312178 0.563376 0.183089 -0.635500
C47   C     C_3   0.318756 0.671215 0.199634 0.067512
H31   H     H_    0.267317 0.707177 0.161829 0.161799
H32   H     H_    0.414862 0.711168 0.180905 0.146108
C48   C     C_3   0.262798 0.685708 0.298852 -0.304031
H33   H     H_    0.167858 0.643539 0.318478 0.225868
H34   H     H_    0.314458 0.651875 0.337444 0.245096
C49   C     C_3   0.263315 0.800749 0.321642 -0.949095
H35   H     H_    0.357740 0.843360 0.307511 0.262868
H36   H     H_    0.217244 0.807704 0.393305 0.249324
H37   H     H_    0.214086 0.836816 0.282575 0.259442
O12   O     O_3   0.683105 0.629980 0.826946 -0.640858
C50   C     C_3   0.689181 0.739740 0.826287 0.090996
H38   H     H_    0.782501 0.774643 0.788217 0.166392
H39   H     H_    0.671692 0.775946 0.893446 0.123650
C51   C     C_3   0.599579 0.767594 0.779299 -0.358016
H40   H     H_    0.611195 0.726888 0.714732 0.225082
H41   H     H_    0.505659 0.741266 0.821099 0.226670
C52   C     C_3   0.617828 0.884922 0.762258 -0.921205
H42   H     H_    0.605474 0.927564 0.825928 0.256321
H43   H     H_    0.550444 0.902164 0.729209 0.268838
H44   H     H_    0.709974 0.912673 0.718130 0.252693
H45   H     H_    0.645967 0.186617 0.513591 0.154065
H46   H     H_    0.351849 0.813107 0.491744 0.157599

loop_
_geom_bond_atom_site_label_1
_geom_bond_atom_site_label_2
_ccdc_geom_bond_type
C46   H28   S    
C8    C13   A    
C5    C37   A    
C1    C8    S    
Cu1   Cu2   S    
C48   H33   S    
C45   C46   S    
Cu1   O1    S    
C20   H1    S    
C22   H15   S    
C44   H24   S    
C48   C49   S    
C27   C33   A    
C21   C25   A    
C17   C26   A    
C35   C37   A    
C9    C16   A    
C45   H27   S    
C10   C15   A    
C52   H43   S    
C51   H40   S    
C15   C16   A    
C18   H4    S    
C30   C38   A    
C3    O11   S    
C42   H19   S    
C23   O7    A    
C5    O9    S    
C17   C19   A    
C46   H29   S    
C7    C14   A    
C2    C7    S    
C4    O12   S    
C6    C38   A    
C41   H17   S    
C9    H13   S    
C23   C27   S    
C10   H14   S    
Cu2   O2    S    
C18   C20   A    
C13   H46   S    
C24   O6    A    
C28   C34   A    
C42   H20   S    
O12   C50   S    
C18   C25   A    
C1    O3    A    
C44   H25   S    
C2    O4    A    
Cu1   O8    S    
C7    C12   A    
C27   C31   A    
C24   C28   S    
C28   C32   A    
C43   H21   S    
Cu1   N1    S    
C21   N2    A    
C4    C6    A    
C52   H44   S    
Cu2   N2    S    
O11   C47   S    
Cu1   O5    S    
C25   C26   A    
C47   C48   S    
C17   H3    S    
C35   C39   A    
C6    O10   S    
C4    C39   A    
C36   C40   A    
C41   C42   S    
C47   H32   S    
C50   H39   S    
C45   H26   S    
C20   N1    A    
C9    C11   A    
C11   H12   S    
C10   C12   A    
C3    C40   A    
C49   H36   S    
C13   C15   A    
Cu2   O7    S    
C42   C43   S    
C14   C16   A    
C31   H8    S    
C49   H37   S    
C22   N1    A    
C44   C45   S    
C19   H2    S    
C29   H9    S    
C30   H10   S    
C12   H11   S    
C43   H22   S    
O10   C44   S    
C3    C5    A    
C1    O1    A    
C48   H34   S    
C19   N2    A    
C14   H45   S    
C23   O5    A    
C36   C38   A    
C21   H16   S    
C29   C31   A    
C52   H42   S    
C30   C32   A    
C51   H41   S    
C8    C11   A    
C47   H31   S    
C33   C35   A    
C50   C51   S    
C34   C36   A    
O9    C41   S    
C32   H7    S    
C24   O8    A    
C39   C40   A    
C43   H23   S    
C49   H35   S    
C22   C26   A    
C46   H30   S    
C29   C37   A    
C50   H38   S    
Cu2   O6    S    
C33   H6    S    
C41   H18   S    
C34   H5    S    
Cu1   O4    S    
Cu2   O3    S    
C2    O2    A    
C51   C52   S    
