data_mof_unit_28198.cif
_audit_creation_date              2012-12-11T15:15:46-0500
_audit_creation_method            fapswitch 2.2
_symmetry_space_group_name_H-M    P1
_symmetry_Int_Tables_number       1
_space_group_crystal_system       triclinic
_cell_length_a                    20.682326
_cell_length_b                    22.739962
_cell_length_c                    6.998762
_cell_angle_alpha                 90.039396
_cell_angle_beta                  87.993987
_cell_angle_gamma                 90.018452
_cell_volume                      3289.60673405

loop_
_atom_site_label
_atom_site_type_symbol
_atom_type_description
_atom_site_fract_x
_atom_site_fract_y
_atom_site_fract_z
_atom_type_partial_charge
O1    O     O_R   0.387100 0.552640 0.378490 -0.528073
O2    O     O_R   0.612900 0.052640 0.621510 -0.526255
O3    O     O_R   0.249610 0.559600 0.072250 -0.519397
O4    O     O_R   0.750390 0.059600 0.927750 -0.547289
O5    O     O_R   0.249120 0.447360 0.902040 -0.546240
O6    O     O_R   0.750880 0.947360 0.097960 -0.544922
C1    C     C_R   0.225534 0.571820 0.241948 0.705533
C2    C     C_R   0.773209 0.073456 0.758331 0.686873
O7    O     O_R   0.386610 0.559560 0.048860 -0.533242
O8    O     O_R   0.613390 0.059560 0.951140 -0.534108
O9    O     O_R   0.387100 0.447320 0.878470 -0.531096
O10   O     O_R   0.612900 0.947320 0.121530 -0.530489
C3    C     C_R   0.407670 0.574765 0.215533 0.774979
C4    C     C_R   0.592388 0.074794 0.784463 0.778030
O11   O     O_R   0.249120 0.552680 0.402050 -0.551938
O12   O     O_R   0.750880 0.052680 0.597950 -0.548892
O13   O     O_3   0.318110 0.463180 0.223790 -0.380349
O14   O     O_3   0.681890 0.963180 0.776210 -0.374518
V1    V     V_3+5 0.318110 0.506830 0.948930 1.476246
V2    V     V_3+5 0.681890 0.006830 0.051070 1.440030
O15   O     O_R   0.386610 0.440400 0.548840 -0.532184
O16   O     O_R   0.613390 0.940400 0.451160 -0.529083
C5    C     C_R   0.407657 0.425184 0.715389 0.771238
C6    C     C_R   0.592053 0.925393 0.284624 0.776991
O17   O     O_R   0.249610 0.440440 0.572240 -0.551177
O18   O     O_R   0.750390 0.940440 0.427760 -0.550751
C7    C     C_R   0.227970 0.425938 0.742177 0.689879
C8    C     C_R   0.771818 0.925873 0.257528 0.698446
V3    V     V_3+5 0.318110 0.493170 0.448930 1.450354
V4    V     V_3+5 0.681890 0.993170 0.551070 1.448128
O19   O     O_3   0.318110 0.536820 0.723940 -0.367190
O20   O     O_3   0.681890 0.036820 0.276060 -0.378165
C9    C     C_R   0.172160 0.385338 0.750634 -0.131738
C10   C     C_R   0.826320 0.884078 0.247429 -0.128529
C11   C     C_R   0.159022 0.346133 0.598376 0.273256
C12   C     C_R   0.832918 0.838260 0.382994 0.272224
C13   C     C_R   0.100846 0.315246 0.600827 -0.226153
C14   C     C_R   0.888815 0.803958 0.378038 -0.226130
C15   C     C_R   0.055710 0.320697 0.753772 0.066238
C16   C     C_R   0.938986 0.814181 0.242012 0.065029
C17   C     C_R   0.069499 0.357844 0.908424 0.324246
C18   C     C_R   0.931820 0.858686 0.104519 0.315601
C19   C     C_R   0.127766 0.389264 0.906528 -0.293298
C20   C     C_R   0.875332 0.892555 0.106752 -0.290052
C21   C     C_R   0.906523 0.182112 0.896081 0.313274
C22   C     C_R   0.092823 0.679037 0.099716 0.278193
C23   C     C_R   0.857699 0.139128 0.914362 0.255710
C24   C     C_R   0.143040 0.636990 0.085570 0.250823
C25   C     C_R   0.853107 0.133601 0.570918 -0.233197
C26   C     C_R   0.134418 0.619910 0.422956 -0.263360
C27   C     C_R   0.908022 0.168646 0.553075 -0.188630
C28   C     C_R   0.080431 0.656327 0.437901 -0.196004
C29   C     C_R   0.933753 0.194976 0.713173 0.019629
C30   C     C_R   0.060607 0.687888 0.279193 0.051125
C31   C     C_2   0.994878 0.286618 0.755161 -0.155193
C32   C     C_2   0.999578 0.779726 0.244829 -0.153104
C33   C     C_2   0.991909 0.231791 0.685282 -0.221751
C34   C     C_2   0.001248 0.723369 0.300408 -0.229143
C35   C     C_R   0.827838 0.116517 0.749392 -0.171576
C36   C     C_R   0.168462 0.611927 0.251006 -0.131527
H1    H     H_    0.831225 0.117809 0.445419 0.183080
H2    H     H_    0.147629 0.593671 0.540295 0.169728
H3    H     H_    0.033256 0.212177 0.609805 0.140993
H4    H     H_    0.958219 0.701582 0.358337 0.136484
H5    H     H_    0.137027 0.418540 0.024735 0.137393
H6    H     H_    0.870646 0.926549 0.000117 0.132272
H7    H     H_    0.952586 0.305107 0.827858 0.170238
H8    H     H_    0.043759 0.800363 0.191371 0.167106
H9    H     H_    0.090806 0.287354 0.479920 0.143793
H10   H     H_    0.893606 0.770601 0.486847 0.141825
H11   H     H_    0.930273 0.175746 0.413595 0.198315
H12   H     H_    0.053589 0.659363 0.573065 0.170129
C37   C     C_R   0.577246 0.362490 0.710401 -0.292421
C38   C     C_R   0.422282 0.862306 0.300463 -0.291556
H13   H     H_    0.667227 0.280029 0.729129 0.116189
H14   H     H_    0.332367 0.779476 0.285978 0.116973
H15   H     H_    0.626916 0.377495 0.706002 0.112454
H16   H     H_    0.372498 0.876837 0.311151 0.112105
C39   C     C_R   0.462070 0.382609 0.718146 -0.114799
C40   C     C_R   0.537426 0.882883 0.282190 -0.116071
C41   C     C_R   0.474309 0.093374 0.792525 0.472742
C42   C     C_R   0.525798 0.593707 0.203221 0.472578
C43   C     C_R   0.421043 0.131478 0.777751 -0.241998
C44   C     C_R   0.578987 0.632170 0.215204 -0.242587
C45   C     C_R   0.429405 0.192048 0.761929 -0.225214
C46   C     C_R   0.570382 0.692674 0.231879 -0.224423
C47   C     C_R   0.491579 0.217568 0.757017 0.105627
C48   C     C_R   0.508098 0.717882 0.240776 0.105602
C49   C     C_R   0.546227 0.178931 0.764610 -0.007605
C50   C     C_R   0.453582 0.678993 0.236693 -0.008133
C51   C     C_R   0.501288 0.280072 0.741221 0.104205
C52   C     C_R   0.498209 0.780318 0.258249 0.104124
C53   C     C_R   0.565473 0.301953 0.729565 0.090069
C54   C     C_R   0.434071 0.801883 0.277179 0.090197
C55   C     C_R   0.618087 0.263374 0.737206 -0.172260
C56   C     C_R   0.381532 0.763076 0.272805 -0.171205
C57   C     C_R   0.608758 0.203057 0.754825 -0.174001
C58   C     C_R   0.390987 0.702841 0.252030 -0.170876
C59   C     C_R   0.449910 0.321837 0.738082 -0.315347
C60   C     C_R   0.549412 0.822280 0.256585 -0.314653
C61   C     C_R   0.525943 0.403284 0.698672 0.470195
C62   C     C_R   0.473638 0.903340 0.309133 0.469526
C63   C     C_R   0.537221 0.116846 0.780836 -0.172645
C64   C     C_R   0.462789 0.616953 0.218715 -0.171158
H17   H     H_    0.399898 0.308743 0.752112 0.109084
H18   H     H_    0.599125 0.809368 0.234052 0.110917
H19   H     H_    0.385933 0.217704 0.750686 0.129428
H20   H     H_    0.613811 0.718523 0.241300 0.130138
H21   H     H_    0.372242 0.114492 0.775565 0.120006
H22   H     H_    0.628006 0.615669 0.214412 0.119617
H23   H     H_    0.651248 0.175370 0.760063 0.095354
H24   H     H_    0.348555 0.674978 0.249544 0.097663
N1    N     N_2   0.202972 0.336160 0.440669 -0.520309
H25   H     H_    0.210343 0.371227 0.349377 0.270090
C65   C     C_3   0.260384 0.302950 0.482811 -0.515340
H26   H     H_    0.288030 0.293149 0.347709 0.190962
H27   H     H_    0.246776 0.260623 0.552569 0.192759
H28   H     H_    0.291931 0.328354 0.577875 0.169740
N2    N     N_2   0.784706 0.825386 0.526869 -0.520199
H29   H     H_    0.775834 0.858379 0.625200 0.272361
C66   C     C_3   0.727324 0.796865 0.459611 -0.530849
H30   H     H_    0.695186 0.784569 0.583583 0.195410
H31   H     H_    0.740609 0.756223 0.379207 0.196329
H32   H     H_    0.700588 0.826954 0.366047 0.165640
O21   O     O_3   0.535141 0.463907 0.682189 -0.555231
C67   C     C_3   0.592614 0.478852 0.578884 -0.236740
H33   H     H_    0.599574 0.451871 0.446987 0.154012
H34   H     H_    0.635055 0.475362 0.671079 0.100769
H35   H     H_    0.589367 0.525562 0.534974 0.187962
O22   O     O_3   0.464808 0.963935 0.330898 -0.554762
C68   C     C_3   0.405425 0.979055 0.423467 -0.230816
H36   H     H_    0.396101 0.952565 0.555222 0.154006
H37   H     H_    0.364989 0.975072 0.323952 0.099211
H38   H     H_    0.407602 0.025943 0.466256 0.186388
O23   O     O_3   0.467520 0.032475 0.802138 -0.552838
C69   C     C_3   0.415142 0.015525 0.924526 -0.237221
H39   H     H_    0.368902 0.017773 0.848983 0.102031
H40   H     H_    0.412392 0.042152 0.058160 0.158055
H41   H     H_    0.422118 0.968922 0.965422 0.187885
O24   O     O_3   0.532536 0.532748 0.192185 -0.553964
C70   C     C_3   0.587256 0.515530 0.079699 -0.235188
H42   H     H_    0.631745 0.518004 0.163596 0.099340
H43   H     H_    0.592684 0.541810 0.945938 0.158288
H44   H     H_    0.581209 0.468798 0.038761 0.188330
N3    N     N_2   0.845792 0.114396 0.097824 -0.514202
H45   H     H_    0.798653 0.116706 0.149374 0.259362
C71   C     C_3   0.879278 0.059341 0.127720 -0.498410
H46   H     H_    0.863414 0.039379 0.266125 0.175328
H47   H     H_    0.932265 0.067207 0.129046 0.195015
H48   H     H_    0.868993 0.027608 0.012419 0.175672
N4    N     N_2   0.157401 0.609913 0.907504 -0.494744
H49   H     H_    0.161452 0.638587 0.795037 0.267859
C72   C     C_3   0.119310 0.557248 0.876121 -0.506838
H50   H     H_    0.145175 0.528096 0.772110 0.182138
H51   H     H_    0.071316 0.569313 0.821395 0.180822
H52   H     H_    0.111931 0.531387 0.009938 0.176380
N5    N     N_2   0.025633 0.362686 0.068768 -0.523516
H53   H     H_    0.048341 0.362719 0.197724 0.260211
C73   C     C_3   0.980395 0.410880 0.055937 -0.596586
H54   H     H_    0.006477 0.453619 0.058710 0.193536
H55   H     H_    0.945229 0.409160 0.179376 0.201333
H56   H     H_    0.953133 0.407746 0.922329 0.199038
N6    N     N_2   0.981693 0.870064 0.964460 -0.538711
H57   H     H_    0.992721 0.914180 0.952175 0.248679
C74   C     C_3   0.970414 0.843841 0.780432 -0.549556
H58   H     H_    0.927606 0.864418 0.715986 0.197856
H59   H     H_    0.962287 0.795765 0.795336 0.209734
H60   H     H_    0.013262 0.851016 0.683255 0.198254
N7    N     N_2   0.930014 0.208934 0.064279 -0.520613
H61   H     H_    0.977851 0.221606 0.059760 0.271724
C75   C     C_3   0.886383 0.251653 0.152889 -0.556288
H62   H     H_    0.910011 0.273133 0.274807 0.208451
H63   H     H_    0.841534 0.229723 0.207961 0.210541
H64   H     H_    0.873096 0.286135 0.049277 0.183951
N8    N     N_2   0.069465 0.704562 0.929083 -0.538044
H65   H     H_    0.020670 0.713511 0.928841 0.268929
C76   C     C_3   0.109623 0.750492 0.843711 -0.580624
H66   H     H_    0.092298 0.761054 0.699409 0.211015
H67   H     H_    0.160954 0.736583 0.828666 0.192975
H68   H     H_    0.107296 0.790974 0.931609 0.206689

loop_
_geom_bond_atom_site_label_1
_geom_bond_atom_site_label_2
_ccdc_geom_bond_type
V4    O20   S    
C75   H62   S    
C23   N3    S    
N5    H53   S    
C47   C51   A    
O13   V3    S    
N7    H61   S    
C38   C54   A    
C20   H6    S    
C71   H46   S    
C37   C53   A    
O4    C2    A    
C68   H38   S    
V1    O19   S    
C14   H10   S    
N3    H45   S    
H13   C55   S    
O23   C69   S    
C15   C17   A    
C7    C9    S    
C75   H63   S    
O9    V1    S    
C74   H58   S    
C18   C20   A    
C39   C59   A    
N6    C74   S    
C44   C46   A    
C13   H9    S    
C70   H43   S    
C2    C35   S    
V2    O20   S    
C57   H23   S    
C46   C48   A    
O12   V4    S    
C65   H26   S    
O7    V1    S    
C2    O12   A    
C12   N2    S    
O7    C3    A    
C66   H32   S    
C42   O24   S    
C41   C43   A    
O5    C7    A    
O22   C68   S    
C6    C40   S    
C9    C11   A    
C15   C31   S    
N6    H57   S    
O8    V2    S    
C76   H67   S    
C56   C58   A    
C61   O21   S    
N4    H49   S    
C43   H21   S    
O3    V1    S    
O14   V4    S    
C41   O23   S    
C72   H51   S    
C10   C12   A    
C38   C62   A    
C24   C36   A    
C76   H68   S    
C21   C23   A    
C8    C10   S    
C74   H59   S    
C16   C32   S    
C49   C63   A    
C34   H4    S    
C17   C19   A    
O10   V2    S    
C27   H11   S    
C69   H41   S    
O1    V3    S    
O18   C8    A    
N3    C71   S    
C28   C30   A    
O11   V3    S    
C45   C47   A    
O17   V3    S    
C59   H17   S    
C75   H64   S    
C22   C24   A    
C71   H47   S    
C23   C35   A    
C25   H1    S    
C9    C19   A    
C48   C52   A    
C71   H48   S    
C10   C20   A    
O24   C70   S    
N8    C76   S    
O8    C4    A    
C70   H44   S    
C29   C33   S    
C18   N6    S    
C69   H39   S    
C1    O11   A    
C67   H35   S    
C25   C27   A    
C32   H8    S    
O15   V3    S    
C44   H22   S    
C40   C62   A    
C27   C29   A    
N5    C73   S    
C28   H12   S    
C51   C53   A    
C26   C28   A    
C73   H54   S    
C19   H5    S    
C65   H28   S    
C22   C30   A    
C52   C54   A    
C73   H56   S    
C3    C64   S    
C54   C56   A    
C50   C64   A    
C66   H30   S    
N2    C66   S    
C17   N5    S    
C69   H40   S    
C43   C45   A    
C48   C50   A    
O18   V4    S    
C74   H60   S    
C42   C44   A    
C31   C33   D    
O21   C67   S    
C26   H2    S    
O16   C6    A    
O1    C3    A    
C68   H36   S    
C1    C36   S    
C52   C60   A    
N1    H25   S    
C41   C63   A    
C65   H27   S    
C67   H34   S    
C37   C61   A    
O16   V4    S    
C11   C13   A    
C60   H18   S    
C46   H20   S    
C62   O22   S    
C33   H3    S    
C16   C18   A    
C68   H37   S    
C21   N7    S    
C31   H7    S    
N2    H29   S    
C55   C57   A    
O5    V1    S    
O17   C7    A    
O6    V2    S    
O10   C6    A    
O3    C1    A    
C25   C35   A    
O2    V4    S    
C26   C36   A    
C58   H24   S    
O15   C5    A    
C73   H55   S    
V3    O19   S    
N8    H65   S    
C51   C59   A    
C70   H42   S    
H14   C56   S    
C12   C14   A    
C14   C16   A    
C72   H52   S    
C4    C63   S    
C67   H33   S    
O9    C5    A    
O13   V1    S    
C32   C34   D    
C11   N1    S    
O14   V2    S    
N4    C72   S    
O2    C4    A    
C66   H31   S    
C21   C29   A    
O4    V2    S    
O6    C8    A    
C13   C15   A    
C30   C34   S    
C37   H15   S    
C53   C55   A    
C76   H66   S    
C38   H16   S    
C24   N4    S    
C49   C57   A    
C47   C49   A    
C42   C64   A    
C22   N8    S    
C39   C61   A    
C5    C39   S    
C72   H50   S    
C45   H19   S    
C50   C58   A    
C40   C60   A    
N1    C65   S    
N7    C75   S    
