data_mof_unit_30461.cif
_audit_creation_date              2012-10-26T20:22:04-0400
_audit_creation_method            fapswitch 2.2
_symmetry_space_group_name_H-M    P1
_symmetry_Int_Tables_number       1
_space_group_crystal_system       triclinic
_cell_length_a                    10.905316
_cell_length_b                    9.628198
_cell_length_c                    10.71922
_cell_angle_alpha                 89.320838
_cell_angle_beta                  94.836807
_cell_angle_gamma                 88.238108
_cell_volume                      1120.84631518

loop_
_atom_site_label
_atom_site_type_symbol
_atom_type_description
_atom_site_fract_x
_atom_site_fract_y
_atom_site_fract_z
_atom_type_partial_charge
C1    C     C_R   0.871741 0.492428 0.479890 -0.075430
C2    C     C_3   0.385798 0.481710 0.032991 -0.006724
C3    C     C_3   0.424400 0.602200 0.949935 0.004887
C4    C     C_3   0.575561 0.397799 0.050054 0.004824
C5    C     C_3   0.498841 0.497254 0.876569 -0.024760
C6    C     C_3   0.501123 0.502745 0.123423 -0.024910
C7    C     C_R   0.428252 0.078481 0.411461 0.148210
C8    C     C_R   0.571740 0.921519 0.588546 0.148285
C9    C     C_R   0.568829 0.069842 0.591602 0.110454
C10   C     C_R   0.431166 0.930159 0.408402 0.110452
C11   C     C_R   0.070581 0.382805 0.547633 0.008766
C12   C     C_R   0.128263 0.507574 0.520127 -0.075313
C13   C     C_R   0.929424 0.617200 0.452393 0.008761
C14   C     C_R   0.943787 0.370833 0.515594 -0.000869
C15   C     C_R   0.056218 0.629169 0.484426 -0.000848
C16   C     C_2   0.338357 0.156174 0.323788 0.660015
C17   C     C_2   0.661615 0.843826 0.676245 0.659988
C18   C     C_2   0.634779 0.135531 0.701804 0.618720
C19   C     C_2   0.365202 0.864474 0.298205 0.618735
C20   C     C_2   0.339260 0.713450 0.889653 0.290320
C21   C     C_2   0.660664 0.286508 0.110326 0.290038
C22   C     C_2   0.587997 0.759171 0.087793 0.264465
C23   C     C_R   0.262976 0.502453 0.509230 0.551326
C24   C     C_2   0.411961 0.240832 0.912193 0.264432
C25   C     C_2   0.741563 0.538312 0.928746 0.308991
C26   C     C_2   0.258396 0.461706 0.071241 0.308823
C27   C     C_2   0.141831 0.274212 0.625497 0.356776
C28   C     C_2   0.858179 0.725805 0.374538 0.356773
C29   C     C_2   0.889559 0.230837 0.504866 0.391524
C30   C     C_2   0.110446 0.769164 0.495138 0.391534
C31   C     C_R   0.737025 0.497547 0.490774 0.551191
C32   C     C_R   0.500442 0.500892 0.259871 0.579248
C33   C     C_R   0.499543 0.499108 0.740125 0.579431
C34   C     C_3   0.539928 0.623458 0.040642 -0.068303
C35   C     C_3   0.460031 0.376545 0.959347 -0.068240
C36   C     C_3   0.614165 0.518291 0.967001 -0.006691
Cu1   Cu    Cu3+1 0.500000 0.640660 0.500000 1.069683
Cu2   Cu    Cu3+1 0.500000 0.359340 0.500000 1.069502
H1    H     H_    0.162855 0.225295 0.284163 0.345307
H2    H     H_    0.209097 0.369598 0.042928 0.139531
H3    H     H_    0.193855 0.305517 0.710443 0.065370
H4    H     H_    0.806185 0.694517 0.289570 0.065286
H5    H     H_    0.826444 0.208371 0.424395 0.152688
H6    H     H_    0.173563 0.791640 0.575599 0.152915
H7    H     H_    0.837104 0.774676 0.715908 0.345286
H8    H     H_    0.674644 0.132395 0.888721 0.360114
H9    H     H_    0.325262 0.867660 0.111301 0.359972
H10   H     H_    0.366303 0.820854 0.890352 0.190842
H11   H     H_    0.633361 0.179239 0.110138 0.190975
H12   H     H_    0.626610 0.767671 0.183460 0.125589
H13   H     H_    0.373533 0.232266 0.816467 0.125753
H14   H     H_    0.790868 0.630406 0.957091 0.139370
N1    N     N_R   0.500000 0.852070 0.500000 -0.320644
N2    N     N_R   0.500000 0.147930 0.500000 -0.320678
O1    O     O_R   0.319640 0.618740 0.499990 -0.480055
O2    O     O_R   0.216544 0.173981 0.352728 -0.620610
O3    O     O_2   0.632572 0.807696 0.778799 -0.466407
O4    O     O_R   0.783430 0.825986 0.647326 -0.620614
O5    O     O_2   0.705949 0.228321 0.689124 -0.414756
O6    O     O_R   0.619884 0.085212 0.822056 -0.638593
O7    O     O_2   0.294055 0.771666 0.310889 -0.414820
O8    O     O_R   0.380051 0.914825 0.177954 -0.638542
O9    O     O_2   0.241301 0.682837 0.835038 -0.521228
O10   O     O_2   0.758895 0.316963 0.164381 -0.520925
O11   O     O_2   0.586068 0.860629 0.018549 -0.401553
O12   O     O_R   0.680360 0.381260 0.500010 -0.480162
O13   O     O_2   0.413678 0.139446 0.981496 -0.401616
O14   O     O_2   0.790599 0.450869 0.866379 -0.448143
O15   O     O_2   0.209353 0.549175 0.133574 -0.448333
O16   O     O_2   0.148733 0.153316 0.593207 -0.397549
O17   O     O_2   0.851253 0.846691 0.406861 -0.397543
O18   O     O_2   0.912118 0.140631 0.585159 -0.372783
O19   O     O_2   0.087883 0.859362 0.414842 -0.372871
O20   O     O_R   0.680360 0.618740 0.500010 -0.490676
O21   O     O_R   0.319640 0.381260 0.499990 -0.490709
O22   O     O_R   0.499970 0.618770 0.316850 -0.515864
O23   O     O_R   0.500030 0.381230 0.683150 -0.515936
O24   O     O_R   0.500030 0.618770 0.683150 -0.477401
O25   O     O_R   0.499970 0.381230 0.316850 -0.477617
O26   O     O_2   0.367384 0.192341 0.221239 -0.466436

loop_
_geom_bond_atom_site_label_1
_geom_bond_atom_site_label_2
_ccdc_geom_bond_type
C2    C35   S    
C31   O12   A    
C6    C32   S    
Cu1   O20   S    
C4    C36   S    
C7    C10   A    
C26   H2    S    
H9    O8    S    
C21   H11   S    
C12   C23   S    
C11   C14   A    
C33   O24   A    
Cu2   O25   S    
C19   O8    S    
C5    C36   S    
C1    C31   S    
C10   N1    A    
C21   O10   D    
C24   O13   D    
Cu2   O12   S    
C8    C9    A    
C5    C33   S    
C13   C28   S    
C17   O4    S    
C22   H12   S    
C29   O18   D    
Cu1   N1    S    
C24   H13   S    
C4    C35   S    
C29   H5    S    
C30   H6    S    
C2    C6    S    
C25   O14   D    
Cu2   O21   S    
C22   C34   S    
H7    O4    S    
C24   C35   S    
C4    C6    S    
C30   O19   D    
C31   O20   A    
C3    C34   S    
C6    C34   S    
C16   O26   D    
C16   O2    S    
C22   O11   D    
Cu1   Cu2   S    
C27   H3    S    
H1    O2    S    
Cu2   N2    S    
C12   C15   A    
C11   C27   S    
C10   C19   S    
C3    C20   S    
C2    C26   S    
C20   H10   S    
C27   O16   D    
C18   O5    D    
C18   O6    S    
C7    C16   S    
Cu1   O22   S    
C13   C15   A    
C28   O17   D    
C1    C13   A    
C14   C29   S    
C15   C30   S    
H8    O6    S    
C23   O21   A    
C3    C5    S    
C8    N1    A    
C32   O22   A    
C11   C12   A    
C23   O1    A    
C9    N2    A    
Cu2   O23   S    
Cu1   O24   S    
C8    C17   S    
C20   O9    D    
C2    C3    S    
C25   H14   S    
C32   O25   A    
C4    C21   S    
C33   O23   A    
C19   O7    D    
C5    C35   S    
C28   H4    S    
C34   C36   S    
C25   C36   S    
Cu1   O1    S    
C9    C18   S    
C26   O15   D    
C1    C14   A    
C7    N2    A    
C17   O3    D    
