data_mof_unit_13848.cif
_audit_creation_date              2012-12-10T21:01:06-0500
_audit_creation_method            fapswitch 2.2
_symmetry_space_group_name_H-M    P1
_symmetry_Int_Tables_number       1
_space_group_crystal_system       triclinic
_cell_length_a                    15.861087
_cell_length_b                    15.079046
_cell_length_c                    10.521736
_cell_angle_alpha                 89.61797
_cell_angle_beta                  89.995758
_cell_angle_gamma                 90.032549
_cell_volume                      2516.42788314

loop_
_atom_site_label
_atom_site_type_symbol
_atom_type_description
_atom_site_fract_x
_atom_site_fract_y
_atom_site_fract_z
_atom_type_partial_charge
C1    C     C_R   0.339045 0.499970 0.500139 0.901994
C2    C     C_R   0.087175 0.499776 0.501101 0.029644
C3    C     C_R   0.499963 0.500341 0.256658 0.861329
C4    C     C_R   0.500022 0.499659 0.743342 0.861398
C5    C     C_1   0.251013 0.499877 0.500582 -0.178992
C6    C     C_1   0.748990 0.500059 0.499826 -0.179274
C7    C     C_R   0.428273 0.953279 0.461677 -0.177043
C8    C     C_R   0.571738 0.046737 0.538300 -0.176034
C9    C     C_R   0.571726 0.953004 0.538306 -0.175821
C10   C     C_R   0.428275 0.047012 0.461673 -0.174735
C11   C     C_R   0.499998 0.905045 0.499995 0.090570
C12   C     C_R   0.660956 0.500023 0.499874 0.901962
C13   C     C_R   0.500007 0.094967 0.499989 0.092616
C14   C     C_3   0.499960 0.584721 0.039171 -0.134703
C15   C     C_3   0.500004 0.415279 0.960828 -0.134551
C16   C     C_3   0.569386 0.541856 0.957260 -0.183087
C17   C     C_3   0.430578 0.458143 0.042742 -0.180376
C18   C     C_3   0.430574 0.541744 0.957229 -0.180263
C19   C     C_3   0.569389 0.458257 0.042768 -0.182864
C20   C     C_3   0.500002 0.498983 0.878029 0.030499
C21   C     C_3   0.499964 0.501016 0.121970 0.030470
C22   C     C_1   0.499997 0.807159 0.499997 0.031152
C23   C     C_1   0.823622 0.500021 0.499900 -0.039964
C24   C     C_1   0.500005 0.192845 0.499995 0.031448
C25   C     C_R   0.091826 0.666611 0.501605 0.142639
C26   C     C_R   0.140038 0.691223 0.607686 -0.154863
C27   C     C_R   0.184477 0.771342 0.607070 -0.128363
C28   C     C_R   0.180856 0.827452 0.500938 -0.111935
C29   C     C_R   0.132975 0.803401 0.395089 -0.137171
C30   C     C_R   0.088645 0.723212 0.395159 -0.133295
C31   C     C_R   0.908164 0.333134 0.494828 0.141431
C32   C     C_R   0.858866 0.305824 0.598919 -0.150221
C33   C     C_R   0.814146 0.225953 0.594368 -0.133616
C34   C     C_1   0.176382 0.499783 0.500933 -0.039645
C35   C     C_R   0.818605 0.172754 0.486299 -0.110229
C36   C     C_R   0.867664 0.199435 0.382499 -0.133027
C37   C     C_R   0.912248 0.279396 0.386484 -0.136648
C38   C     C_R   0.908602 0.666714 0.504867 0.141962
C39   C     C_R   0.860585 0.694054 0.399496 -0.153719
C40   C     C_R   0.816480 0.774282 0.402496 -0.128484
C41   C     C_R   0.820243 0.827780 0.510320 -0.112095
C42   C     C_R   0.867912 0.800992 0.615491 -0.137182
C43   C     C_R   0.911910 0.720686 0.613032 -0.134581
C44   C     C_R   0.091422 0.332906 0.501686 0.142105
C45   C     C_R   0.955924 0.581545 0.501676 -0.061216
C46   C     C_R   0.140633 0.307942 0.396827 -0.151222
C47   C     C_R   0.185068 0.227868 0.399016 -0.134070
C48   C     C_R   0.180402 0.172132 0.505467 -0.109943
C49   C     C_R   0.131437 0.196479 0.610020 -0.132396
C50   C     C_R   0.087143 0.276631 0.608403 -0.135810
C51   C     C_R   0.044089 0.418128 0.499760 -0.061163
C52   C     C_R   0.044277 0.581472 0.502189 -0.061154
C53   C     C_R   0.955719 0.418203 0.499229 -0.061194
C54   C     C_R   0.912829 0.499919 0.500197 0.029647
H1    H     H_    0.372087 0.082100 0.431531 0.122827
H2    H     H_    0.374159 0.424261 0.082448 0.131104
H3    H     H_    0.142920 0.648469 0.690696 0.120954
H4    H     H_    0.221578 0.790024 0.688971 0.126052
H5    H     H_    0.215053 0.889589 0.500777 0.113343
H6    H     H_    0.130239 0.846891 0.312950 0.123931
H7    H     H_    0.051913 0.705141 0.312505 0.119978
H8    H     H_    0.855275 0.346334 0.683361 0.121532
H9    H     H_    0.776126 0.205228 0.674674 0.122752
H10   H     H_    0.784108 0.110855 0.482992 0.114433
H11   H     H_    0.871061 0.158196 0.298862 0.124505
H12   H     H_    0.627900 0.917915 0.568452 0.125817
H13   H     H_    0.949815 0.299560 0.305318 0.120227
H14   H     H_    0.857627 0.653358 0.315179 0.121825
H15   H     H_    0.779543 0.795087 0.321124 0.126294
H16   H     H_    0.786334 0.890023 0.512314 0.113009
H17   H     H_    0.870759 0.842461 0.698942 0.123916
H18   H     H_    0.948512 0.700498 0.695153 0.120077
H19   H     H_    0.144363 0.350420 0.313602 0.120704
H20   H     H_    0.223014 0.208948 0.318121 0.122814
H21   H     H_    0.214654 0.110069 0.506934 0.113735
H22   H     H_    0.127877 0.153274 0.692399 0.124588
H23   H     H_    0.627935 0.081605 0.568427 0.122482
H24   H     H_    0.049631 0.294959 0.690128 0.120130
H25   H     H_    0.372090 0.918411 0.431534 0.125978
H26   H     H_    0.374154 0.575534 0.917499 0.131279
H27   H     H_    0.625813 0.424468 0.082484 0.134035
H28   H     H_    0.499943 0.653762 0.075193 0.144659
H29   H     H_    0.500028 0.346237 0.924805 0.144745
H30   H     H_    0.625808 0.575736 0.917567 0.133687
N1    N     N_1   0.500000 0.270550 0.500000 -0.088096
N2    N     N_1   0.500000 0.729450 0.500000 -0.088090
O1    O     O_R   0.378020 0.573650 0.500040 -0.607638
O2    O     O_R   0.621980 0.426350 0.499960 -0.607647
O3    O     O_R   0.621980 0.573650 0.499960 -0.607843
O4    O     O_R   0.378020 0.426350 0.500040 -0.607648
O5    O     O_R   0.499980 0.573650 0.313960 -0.625044
O6    O     O_R   0.500020 0.426350 0.686040 -0.624991
O7    O     O_R   0.500020 0.573650 0.686040 -0.617637
O8    O     O_R   0.499980 0.426350 0.313960 -0.617610
Zn1   Zn    Zn3+2 0.500000 0.598370 0.500000 0.970356
Zn2   Zn    Zn3+2 0.500000 0.401630 0.500000 0.970563

loop_
_geom_bond_atom_site_label_1
_geom_bond_atom_site_label_2
_ccdc_geom_bond_type
C1    O1    A    
C7    C10   A    
O2    Zn2   S    
C1    O4    A    
C41   C42   A    
C14   C18   S    
C35   C36   A    
O6    Zn2   S    
C53   C54   A    
C15   C19   S    
C26   C27   A    
C8    C13   A    
C1    C5    S    
C14   C21   S    
C28   C29   A    
C19   C21   S    
C6    C12   S    
C38   C39   A    
N1    Zn2   S    
C16   H30   S    
C3    O5    A    
C39   H14   S    
C9    H12   S    
C38   C45   S    
C31   C32   A    
C8    C9    A    
O1    Zn1   S    
C35   H10   S    
C24   N1    T    
C33   H9    S    
C2    C34   S    
O7    Zn1   S    
C48   H21   S    
C50   H24   S    
C44   C46   A    
C15   C20   S    
C40   H15   S    
C12   O2    A    
C12   O3    A    
C2    C51   A    
C39   C40   A    
C36   H11   S    
C15   H29   S    
C45   C52   A    
C25   C26   A    
C27   H4    S    
C17   C21   S    
C31   C37   A    
C13   C24   S    
C51   C53   A    
O3    Zn1   S    
C7    C11   A    
C29   C30   A    
C47   C48   A    
C29   H6    S    
C16   C20   S    
C5    C34   T    
C17   C18   S    
C49   H22   S    
C31   C53   S    
O8    Zn2   S    
C10   H1    S    
C9    C11   A    
C17   H2    S    
C2    C52   A    
C44   C51   S    
C40   C41   A    
C45   C54   A    
C8    H23   S    
C14   C16   S    
C3    C21   S    
C42   C43   A    
C14   H28   S    
C23   C54   S    
C7    H25   S    
C28   H5    S    
C44   C50   A    
C25   C30   A    
C15   C17   S    
C43   H18   S    
C46   C47   A    
C36   C37   A    
C47   H20   S    
C10   C13   A    
O4    Zn2   S    
C11   C22   S    
C32   C33   A    
C25   C52   S    
C32   H8    S    
C38   C43   A    
C16   C19   S    
C48   C49   A    
C6    C23   T    
C37   H13   S    
C42   H17   S    
C33   C35   A    
C3    O8    A    
C18   C20   S    
C22   N2    T    
C26   H3    S    
N2    Zn1   S    
O5    Zn1   S    
C4    O7    A    
C4    C20   S    
C18   H26   S    
C49   C50   A    
C30   H7    S    
C27   C28   A    
C19   H27   S    
C46   H19   S    
C41   H16   S    
C4    O6    A    
