data_mof_unit_14789.cif
_audit_creation_date              2012-12-10T21:01:02-0500
_audit_creation_method            fapswitch 2.2
_symmetry_space_group_name_H-M    P1
_symmetry_Int_Tables_number       1
_space_group_crystal_system       triclinic
_cell_length_a                    15.744134
_cell_length_b                    15.075767
_cell_length_c                    10.493642
_cell_angle_alpha                 90.414358
_cell_angle_beta                  89.754271
_cell_angle_gamma                 89.477884
_cell_volume                      2490.52514173

loop_
_atom_site_label
_atom_site_type_symbol
_atom_type_description
_atom_site_fract_x
_atom_site_fract_y
_atom_site_fract_z
_atom_type_partial_charge
C1    C     C_R   0.338686 0.500402 0.501541 0.892872
C2    C     C_R   0.661321 0.499635 0.499968 0.906760
C3    C     C_1   0.824064 0.498782 0.529107 0.082208
C4    C     C_1   0.176371 0.501661 0.538240 0.098225
C5    C     C_R   0.954851 0.580859 0.552696 0.347837
C6    C     C_R   0.045636 0.419120 0.550829 0.325949
C7    C     C_R   0.042806 0.581298 0.565834 0.353379
C8    C     C_R   0.957135 0.418256 0.554322 0.344301
C9    C     C_R   0.912707 0.499278 0.547392 -0.246634
C10   C     C_R   0.087601 0.500620 0.556161 -0.243275
C11   C     C_R   0.499493 0.499596 0.256827 0.933451
C12   C     C_R   0.500433 0.500352 0.743136 0.933372
C13   C     C_1   0.250668 0.501401 0.519902 -0.177908
C14   C     C_1   0.749586 0.498926 0.513715 -0.195194
C15   C     C_R   0.446340 0.953105 0.417303 0.320234
C16   C     C_R   0.552212 0.047029 0.585191 0.319522
C17   C     C_R   0.554781 0.952753 0.581381 0.318455
C18   C     C_R   0.449257 0.047256 0.413342 0.313099
C19   C     C_R   0.500346 0.905078 0.499533 -0.283108
C20   C     C_R   0.500564 0.094972 0.499514 -0.282210
C21   C     C_3   0.431573 0.547315 0.042770 -0.342991
C22   C     C_3   0.568167 0.452343 0.957096 -0.339847
C23   C     C_3   0.504584 0.585405 0.960857 -0.277873
C24   C     C_3   0.495140 0.414268 0.038995 -0.278829
C25   C     C_3   0.429289 0.463785 0.957996 0.560207
C26   C     C_3   0.570490 0.535871 0.041768 0.558894
C27   C     C_3   0.500904 0.501089 0.877509 -0.107552
C28   C     C_3   0.498895 0.498613 0.122379 -0.101769
C29   C     C_1   0.500092 0.807091 0.499780 0.235282
C30   C     C_1   0.500274 0.192925 0.499807 0.233392
H1    H     H_    0.376417 0.584618 0.082938 0.153161
H2    H     H_    0.623452 0.415123 0.917131 0.149642
H3    H     H_    0.509530 0.654197 0.924681 0.172463
H4    H     H_    0.489910 0.345426 0.074904 0.165059
N1    N     N_1   0.500000 0.270550 0.500000 -0.101234
N2    N     N_1   0.500000 0.729450 0.500000 -0.101271
O1    O     O_R   0.378020 0.573650 0.500040 -0.616770
O2    O     O_R   0.621980 0.426350 0.499960 -0.612133
O3    O     O_R   0.621980 0.573650 0.499960 -0.609649
O4    O     O_R   0.378020 0.426350 0.500040 -0.602534
O5    O     O_R   0.499980 0.573650 0.313960 -0.592405
O6    O     O_R   0.500020 0.426350 0.686040 -0.597220
O7    O     O_R   0.500020 0.573650 0.686040 -0.635207
O8    O     O_R   0.499980 0.426350 0.313960 -0.637372
Zn1   Zn    Zn3+2 0.500000 0.598370 0.500000 0.986241
Zn2   Zn    Zn3+2 0.500000 0.401630 0.500000 0.987389
O9    O     O_3   0.397678 0.092721 0.329291 -0.594716
C31   C     C_3   0.442526 0.103466 0.213671 0.149482
H5    H     H_    0.455080 0.037999 0.167078 0.167927
H6    H     H_    0.503959 0.138027 0.229381 0.122107
C32   C     C_3   0.389392 0.159699 0.123807 -0.862146
H7    H     H_    0.375350 0.225155 0.168662 0.255342
H8    H     H_    0.424636 0.170211 0.033370 0.204588
H9    H     H_    0.328771 0.125815 0.102077 0.262211
O10   O     O_3   0.607358 0.907200 0.663973 -0.588800
C33   C     C_3   0.686800 0.893391 0.603668 0.134971
H10   H     H_    0.719825 0.957679 0.590135 0.168982
H11   H     H_    0.679709 0.859658 0.509413 0.121880
C34   C     C_3   0.742017 0.834385 0.687008 -0.808503
H12   H     H_    0.711198 0.769080 0.700345 0.256564
H13   H     H_    0.804941 0.823637 0.640897 0.220938
H14   H     H_    0.751440 0.866274 0.781577 0.255987
O11   O     O_3   0.605131 0.092309 0.667378 -0.588169
C35   C     C_3   0.561931 0.106027 0.784162 0.145994
H15   H     H_    0.551577 0.041700 0.833126 0.166066
H16   H     H_    0.499486 0.139971 0.769927 0.125638
C36   C     C_3   0.615479 0.164735 0.870074 -0.833171
H17   H     H_    0.625459 0.230120 0.824461 0.257779
H18   H     H_    0.582617 0.175356 0.962857 0.199140
H19   H     H_    0.678134 0.132691 0.887411 0.256963
O12   O     O_3   0.393933 0.907856 0.334364 -0.585432
C37   C     C_3   0.312945 0.900651 0.391460 0.140663
H20   H     H_    0.283061 0.967337 0.405096 0.163392
H21   H     H_    0.316982 0.866593 0.485247 0.122628
C38   C     C_3   0.255995 0.846057 0.305014 -0.807510
H22   H     H_    0.283687 0.778654 0.290769 0.258519
H23   H     H_    0.192058 0.839876 0.349044 0.209959
H24   H     H_    0.249447 0.878858 0.211079 0.254749
O13   O     O_3   0.357267 0.425717 0.900600 -0.604604
C39   C     C_3   0.296449 0.406602 0.995250 0.079193
H25   H     H_    0.269973 0.469054 0.037061 0.133050
H26   H     H_    0.324191 0.365258 0.072393 0.130898
C40   C     C_3   0.223904 0.355369 0.935139 -0.795017
H27   H     H_    0.248120 0.291760 0.894387 0.261462
H28   H     H_    0.174996 0.340858 0.008474 0.195340
H29   H     H_    0.194267 0.395119 0.858144 0.263327
O14   O     O_3   0.643142 0.572938 0.098701 -0.609479
C41   C     C_3   0.699550 0.601039 0.002705 0.110488
H30   H     H_    0.669074 0.651728 0.940742 0.143355
H31   H     H_    0.721659 0.543859 0.943164 0.129324
C42   C     C_3   0.776814 0.642732 0.064745 -0.832922
H32   H     H_    0.809557 0.593509 0.126116 0.249763
H33   H     H_    0.821792 0.665324 0.990141 0.211281
H34   H     H_    0.756912 0.700666 0.124025 0.259822
O15   O     O_3   0.084902 0.661421 0.573187 -0.630619
C43   C     C_3   0.111512 0.676934 0.700103 0.104223
H35   H     H_    0.166944 0.721924 0.696085 0.162003
H36   H     H_    0.133910 0.615569 0.749034 0.126503
C44   C     C_3   0.040749 0.722520 0.778114 -0.326409
H37   H     H_    0.018813 0.783163 0.727868 0.240386
H38   H     H_    0.986044 0.677032 0.788081 0.231126
C45   C     C_3   0.071445 0.748110 0.911023 -0.991621
H39   H     H_    0.092288 0.688128 0.963693 0.266308
H40   H     H_    0.018777 0.780654 0.964954 0.272998
H41   H     H_    0.125154 0.795155 0.904461 0.268541
O16   O     O_3   0.915116 0.337965 0.549185 -0.620215
C46   C     C_3   0.880472 0.318229 0.670394 0.115194
H42   H     H_    0.823854 0.276127 0.654687 0.176068
H43   H     H_    0.857571 0.378060 0.724101 0.112367
C47   C     C_3   0.944759 0.266247 0.750546 -0.324022
H44   H     H_    0.967633 0.207249 0.695805 0.242629
H45   H     H_    0.000116 0.308860 0.772364 0.233751
C48   C     C_3   0.905205 0.235836 0.875672 -0.984864
H46   H     H_    0.882863 0.293985 0.932614 0.265671
H47   H     H_    0.953365 0.198931 0.931860 0.270458
H48   H     H_    0.850750 0.191337 0.856779 0.272096
O17   O     O_3   0.910079 0.660399 0.551656 -0.631377
C49   C     C_3   0.889965 0.684207 0.424798 0.118764
H49   H     H_    0.821932 0.704490 0.423088 0.162888
H50   H     H_    0.897454 0.629121 0.353574 0.117646
C50   C     C_3   0.943977 0.763034 0.384006 -0.322045
H51   H     H_    0.935509 0.818281 0.453790 0.223291
H52   H     H_    0.012055 0.743152 0.382365 0.255180
C51   C     C_3   0.919265 0.795390 0.251690 -1.003598
H53   H     H_    0.928937 0.741599 0.180047 0.272781
H54   H     H_    0.959619 0.852410 0.224999 0.273047
H55   H     H_    0.851702 0.817258 0.250935 0.266578
O18   O     O_3   0.091388 0.340285 0.549211 -0.619057
C52   C     C_3   0.102046 0.311828 0.421576 0.115435
H56   H     H_    0.130830 0.364859 0.362151 0.118804
H57   H     H_    0.039749 0.292742 0.380149 0.171532
C53   C     C_3   0.161386 0.231054 0.418786 -0.313790
H58   H     H_    0.223322 0.249036 0.461985 0.244102
H59   H     H_    0.132998 0.176970 0.475963 0.222059
C54   C     C_3   0.176710 0.197699 0.282920 -0.961277
H60   H     H_    0.208225 0.249604 0.225396 0.261293
H61   H     H_    0.115655 0.179523 0.237429 0.258569
H62   H     H_    0.218449 0.137976 0.284911 0.298889

loop_
_geom_bond_atom_site_label_1
_geom_bond_atom_site_label_2
_ccdc_geom_bond_type
C8    C9    A    
C7    C10   A    
O14   C41   S    
C15   C18   A    
O15   C43   S    
O10   C33   S    
C18   O9    S    
C54   H60   S    
C20   C30   S    
C15   C19   A    
C21   H1    S    
C29   N2    T    
C22   H2    S    
C30   N1    T    
C40   H27   S    
C48   H46   S    
C12   O7    A    
C37   C38   S    
C39   H25   S    
O16   C46   S    
C43   C44   S    
C33   H10   S    
C45   H41   S    
O6    Zn2   S    
C23   C26   S    
C4    C13   T    
C47   H44   S    
C50   C51   S    
C12   O6    A    
C1    O4    A    
C49   H49   S    
C2    O3    A    
C31   C32   S    
O9    C31   S    
C53   H58   S    
C23   H3    S    
C43   H36   S    
C46   H42   S    
C16   O11   S    
C23   C27   S    
C32   H9    S    
C17   O10   S    
C1    O1    A    
O3    Zn1   S    
C48   H48   S    
C31   H6    S    
C34   H12   S    
O18   C52   S    
C46   H43   S    
C39   C40   S    
O8    Zn2   S    
C49   H50   S    
C34   H13   S    
O2    Zn2   S    
C12   C27   S    
C36   H17   S    
C35   C36   S    
C11   O8    A    
C24   C25   S    
C39   H26   S    
C42   H32   S    
C5    C7    A    
C26   O14   S    
C6    C8    A    
C24   H4    S    
C32   H7    S    
C5    O17   S    
C32   H8    S    
C49   C50   S    
C35   H16   S    
O4    Zn2   S    
C38   H22   S    
C5    C9    A    
C3    C9    S    
C42   H33   S    
C38   H23   S    
C2    O2    A    
C44   H37   S    
C41   C42   S    
C16   C20   A    
C43   H35   S    
C40   H29   S    
N2    Zn1   S    
C45   H40   S    
O7    Zn1   S    
C47   C48   S    
C50   H51   S    
C54   H62   S    
C51   H55   S    
C37   H21   S    
C31   H5    S    
C40   H28   S    
C21   C28   S    
C41   H31   S    
C22   C27   S    
C21   C23   S    
C46   C47   S    
C22   C24   S    
O13   C39   S    
C1    C13   S    
O1    Zn1   S    
C19   C29   S    
C15   O12   S    
C51   H54   S    
C52   H56   S    
C54   H61   S    
C21   C25   S    
C34   H14   S    
C44   H38   S    
C25   O13   S    
C24   C28   S    
C37   H20   S    
C8    O16   S    
C6    C10   A    
C3    C14   T    
C25   C27   S    
C7    O15   S    
C26   C28   S    
C33   C34   S    
C36   H19   S    
C35   H15   S    
C52   C53   S    
C6    O18   S    
O12   C37   S    
O17   C49   S    
C42   H34   S    
C16   C17   A    
C11   C28   S    
C53   C54   S    
C52   H57   S    
C17   C19   A    
C33   H11   S    
C11   O5    A    
C18   C20   A    
C45   H39   S    
C2    C14   S    
C38   H24   S    
C47   H45   S    
C50   H52   S    
O11   C35   S    
C44   C45   S    
C41   H30   S    
C53   H59   S    
C22   C26   S    
O5    Zn1   S    
C36   H18   S    
N1    Zn2   S    
C4    C10   S    
C51   H53   S    
C48   H47   S    
