data_mof_unit_37775.cif
_audit_creation_date              2013-03-05T16:49:24-0500
_audit_creation_method            fapswitch 2.2
_symmetry_space_group_name_H-M    P1
_symmetry_Int_Tables_number       1
_space_group_crystal_system       triclinic
_cell_length_a                    10.822276
_cell_length_b                    16.079449
_cell_length_c                    17.353439
_cell_angle_alpha                 96.66924
_cell_angle_beta                  90.065483
_cell_angle_gamma                 92.830358
_cell_volume                      2995.61484263

loop_
_atom_site_label
_atom_site_type_symbol
_atom_site_description
_atom_site_fract_x
_atom_site_fract_y
_atom_site_fract_z
_atom_type_partial_charge
O1    O     O_R   0.494030 0.420280 0.382610 -0.599678
O2    O     O_R   0.505970 0.579720 0.617390 -0.598489
O3    O     O_R   0.504770 0.563150 0.389400 -0.558695
O4    O     O_R   0.495230 0.436850 0.610600 -0.559689
C1    C     C_R   0.501782 0.489306 0.350100 0.854152
C2    C     C_R   0.498043 0.510679 0.649911 0.852577
O5    O     O_R   0.314270 0.428570 0.496610 -0.566389
O6    O     O_R   0.685730 0.571430 0.503390 -0.566669
O7    O     O_R   0.325020 0.571440 0.503400 -0.595047
O8    O     O_R   0.674980 0.428560 0.496600 -0.594651
C3    C     C_R   0.262593 0.500351 0.502037 0.818042
C4    C     C_R   0.737411 0.499654 0.498011 0.819317
Cu1   Cu    Cu3+1 0.493640 0.415410 0.495980 0.991406
Cu2   Cu    Cu3+1 0.506360 0.584590 0.504020 0.991791
H1    H     H_    0.304128 0.842260 0.689395 0.216698
H2    H     H_    0.697925 0.157825 0.309348 0.216147
C5    C     C_R   0.253405 0.711065 0.690620 0.344280
C6    C     C_R   0.748833 0.289054 0.308444 0.341821
C7    C     C_R   0.191005 0.640462 0.650302 -0.187470
C8    C     C_R   0.810400 0.359689 0.349278 -0.187534
H3    H     H_    0.188670 0.580867 0.673713 0.199437
H4    H     H_    0.813464 0.419274 0.325841 0.200474
C9    C     C_R   0.131320 0.646214 0.579526 -0.004116
C10   C     C_R   0.868786 0.353906 0.420458 -0.004230
C11   C     C_R   0.132692 0.723297 0.549145 -0.218013
C12   C     C_R   0.866669 0.276832 0.450873 -0.217134
H5    H     H_    0.085711 0.727261 0.494644 0.196187
H6    H     H_    0.912671 0.272861 0.505695 0.196106
C13   C     C_R   0.195026 0.794606 0.588365 0.318176
C14   C     C_R   0.804961 0.205524 0.411222 0.318908
C15   C     C_R   0.255914 0.787660 0.658791 -0.256114
C16   C     C_R   0.745580 0.212449 0.340293 -0.257693
C17   C     C_R   0.938364 0.569827 0.532477 -0.203751
C18   C     C_R   0.061632 0.430176 0.467721 -0.203331
H7    H     H_    0.890547 0.623342 0.559367 0.161900
H8    H     H_    0.109436 0.376669 0.440798 0.161946
C19   C     C_R   0.871459 0.499157 0.496532 -0.062870
C20   C     C_R   0.128545 0.500850 0.503633 -0.062712
C21   C     C_R   0.933565 0.428664 0.463096 0.052718
C22   C     C_R   0.066448 0.571351 0.537091 0.053172
C23   C     C_R   0.501303 0.484708 0.265933 -0.184673
C24   C     C_R   0.498162 0.515078 0.734098 -0.171115
C25   C     C_R   0.570551 0.544277 0.227760 0.346332
C26   C     C_R   0.429874 0.454706 0.771861 0.346882
C27   C     C_R   0.552878 0.545324 0.148377 -0.237643
C28   C     C_R   0.448332 0.452756 0.851043 -0.247524
C29   C     C_R   0.472103 0.485889 0.106154 0.009153
C30   C     C_R   0.528752 0.512135 0.893554 0.028331
C31   C     C_R   0.406653 0.425005 0.144004 0.511270
C32   C     C_R   0.592497 0.574257 0.856464 0.492487
C33   C     C_R   0.420777 0.425272 0.223824 -0.246305
C34   C     C_R   0.577854 0.574778 0.776585 -0.268584
C35   C     C_2   0.454229 0.487558 0.022624 -0.182311
C36   C     C_2   0.546922 0.509819 0.976959 -0.160518
H9    H     H_    0.632108 0.620050 0.747418 0.161882
H10   H     H_    0.365767 0.380650 0.253283 0.164591
H11   H     H_    0.637958 0.528499 0.001215 0.201846
H12   H     H_    0.363216 0.468849 0.998335 0.199002
H13   H     H_    0.399760 0.404331 0.879285 0.184190
H14   H     H_    0.602276 0.593148 0.119810 0.187202
N1    N     N_R   0.515930 0.711660 0.510070 -0.188842
N2    N     N_R   0.484070 0.288340 0.489930 -0.188076
C37   C     C_R   0.450587 0.747595 0.456994 0.109378
C38   C     C_R   0.548930 0.252362 0.543201 0.110601
C39   C     C_R   0.456629 0.834285 0.457020 -0.179543
C40   C     C_R   0.542867 0.165660 0.543082 -0.178414
C41   C     C_R   0.529244 0.884615 0.513270 0.172197
C42   C     C_R   0.470769 0.115370 0.486536 0.173657
C43   C     C_R   0.595710 0.845640 0.567310 -0.235976
C44   C     C_R   0.404816 0.154382 0.432289 -0.237916
C45   C     C_R   0.587687 0.758480 0.564777 0.096085
C46   C     C_R   0.412829 0.241549 0.434923 0.093815
C47   C     C_2   0.541238 0.977158 0.516140 -0.101780
C48   C     C_2   0.458757 0.022829 0.483598 -0.102052
H15   H     H_    0.394511 0.708685 0.413990 0.135843
H16   H     H_    0.604637 0.291239 0.586422 0.135664
H17   H     H_    0.361710 0.271944 0.393453 0.120691
H18   H     H_    0.639212 0.728109 0.606072 0.122614
H19   H     H_    0.378823 0.991911 0.452876 0.176604
H20   H     H_    0.621189 0.008111 0.546823 0.177048
H21   H     H_    0.653340 0.882351 0.611107 0.152514
H22   H     H_    0.347604 0.117696 0.388253 0.151059
H23   H     H_    0.592511 0.139376 0.587800 0.151504
H24   H     H_    0.406543 0.860509 0.412457 0.151412
O9    O     O_3   0.323268 0.367883 0.103848 -0.594416
C49   C     C_3   0.383727 0.294319 0.075992 0.077868
H25   H     H_    0.487067 0.300953 0.077788 0.186067
H26   H     H_    0.357271 0.277271 0.014110 0.175634
C50   C     C_3   0.340286 0.222540 0.121009 -0.688071
H27   H     H_    0.238107 0.212733 0.116541 0.250184
H28   H     H_    0.383459 0.164009 0.096767 0.225796
H29   H     H_    0.367152 0.236833 0.183049 0.248966
O10   O     O_3   0.675322 0.630910 0.897734 -0.594929
C51   C     C_3   0.622122 0.709750 0.909624 0.087833
H30   H     H_    0.527843 0.704724 0.935218 0.186749
H31   H     H_    0.616622 0.737640 0.854002 0.186641
C52   C     C_3   0.702969 0.768463 0.965871 -0.709386
H32   H     H_    0.797292 0.776139 0.941663 0.259695
H33   H     H_    0.662126 0.830810 0.975684 0.217188
H34   H     H_    0.709470 0.742496 0.022271 0.258375
N3    N     N_R   0.312459 0.705366 0.764042 0.126039
O11   O     O_R   0.382321 0.767567 0.797189 -0.397639
O12   O     O_R   0.292787 0.639325 0.799976 -0.370310
N4    N     N_R   0.691595 0.294687 0.234439 0.127787
O13   O     O_R   0.626123 0.231341 0.199392 -0.389832
O14   O     O_R   0.709113 0.361788 0.199745 -0.371036
N5    N     N_R   0.195837 0.873792 0.557162 0.128795
O15   O     O_R   0.246883 0.941051 0.595688 -0.347270
O16   O     O_R   0.144664 0.879576 0.490207 -0.348377
N6    N     N_R   0.803385 0.126336 0.442459 0.128668
O17   O     O_R   0.752692 0.059115 0.403670 -0.348009
O18   O     O_R   0.853512 0.120513 0.509711 -0.348837
N7    N     N_R   0.659952 0.602930 0.268176 0.140441
O19   O     O_R   0.679566 0.677135 0.246270 -0.338191
O20   O     O_R   0.733546 0.578826 0.319702 -0.362101
N8    N     N_R   0.340727 0.396064 0.731186 0.140161
O21   O     O_R   0.322134 0.321433 0.752328 -0.335908
O22   O     O_R   0.266443 0.420458 0.680189 -0.362139

loop_
_geom_bond_atom_site_label_1
_geom_bond_atom_site_label_2
_geom_bond_distance
_ccdc_geom_bond_type
C40   C42   1.406136 A    
C37   C39   1.392174 A    
C27   H14   1.082332 S    
N3    O11   1.301354 A    
C28   H13   1.082405 S    
N5    O16   1.301561 A    
C47   C48   1.347183 D    
C7    C9    1.401694 A    
N4    O14   1.301349 A    
C52   H32   1.110998 S    
C29   C31   1.404818 A    
C35   C36   1.339636 D    
C30   C36   1.465431 S    
O10   C51   1.411629 S    
C14   N6    1.439993 S    
O1    C1    1.301368 A    
C7    H3    1.082579 S    
C10   C12   1.401477 A    
C49   H26   1.110633 S    
C42   C48   1.482212 S    
C9    C22   1.481098 S    
O4    Cu1   1.978770 S    
C10   C21   1.480859 S    
N8    O21   1.301430 A    
N1    C37   1.358224 A    
C33   H10   1.083634 S    
C4    C19   1.451364 S    
C43   C45   1.395461 A    
C5    N3    1.439200 S    
N6    O17   1.301538 A    
N2    C38   1.358231 A    
C17   H7    1.085020 S    
C40   H23   1.080328 S    
Cu1   N2    2.031191 S    
C8    C10   1.401557 A    
C31   C33   1.392880 A    
C32   C34   1.396061 A    
N5    O15   1.301533 A    
C41   C47   1.482321 S    
C50   H28   1.110390 S    
C18   H8    1.085036 S    
C34   H9    1.083921 S    
C29   C35   1.465673 S    
N1    C45   1.358553 A    
C30   C32   1.403663 A    
N3    O12   1.301371 A    
Cu1   Cu2   2.704326 S    
C23   C25   1.412634 A    
O2    C2    1.301733 A    
C24   C26   1.412791 A    
O2    Cu2   1.977983 S    
N4    O13   1.301252 A    
C52   H33   1.110703 S    
C26   C28   1.392477 A    
C27   C29   1.402759 A    
C11   C13   1.405089 A    
C28   C30   1.402199 A    
C17   C22   1.387223 A    
C18   C21   1.387051 A    
C14   C16   1.406236 A    
C31   O9    1.382601 S    
O4    C2    1.297630 A    
C49   H25   1.118244 S    
C39   H24   1.080278 S    
C51   C52   1.520506 S    
C39   C41   1.406160 A    
O9    C49   1.416093 S    
Cu2   N1    2.031188 S    
C49   C50   1.523182 S    
C17   C19   1.399164 A    
C41   C43   1.403238 A    
C38   C40   1.392188 A    
C3    C20   1.451397 S    
O5    C3    1.300934 A    
O7    Cu2   1.963343 S    
C46   H17   1.081794 S    
O7    C3    1.296551 A    
O6    C4    1.300910 A    
C38   H16   1.081496 S    
N2    C46   1.358633 A    
C6    N4    1.439419 S    
C50   H29   1.109794 S    
C51   H31   1.113282 S    
C25   C27   1.392713 A    
O3    Cu2   1.978772 S    
O8    C4    1.296561 A    
C42   C44   1.403190 A    
C8    H4    1.082534 S    
C12   C14   1.405054 A    
C48   H19   1.083805 S    
C11   H5    1.083140 S    
C5    C15   1.406206 A    
O1    Cu1   1.977985 S    
C52   H34   1.111261 S    
N7    O19   1.301443 A    
C1    C23   1.453854 S    
O6    Cu2   1.962958 S    
C18   C20   1.399067 A    
O3    C1    1.297712 A    
O8    Cu1   1.963345 S    
C35   H12   1.085655 S    
C32   O10   1.382942 S    
H1    C15   1.082087 S    
H2    C16   1.082067 S    
C12   H6    1.083138 S    
C19   C21   1.413014 A    
C25   N7    1.439497 S    
C20   C22   1.413180 A    
C37   H15   1.081509 S    
C5    C7    1.404669 A    
C47   H20   1.083863 S    
N8    O22   1.301338 A    
C6    C8    1.404734 A    
C9    C11   1.401569 A    
C51   H30   1.116279 S    
C44   H22   1.083260 S    
N6    O18   1.301563 A    
C43   H21   1.083248 S    
O5    Cu1   1.962957 S    
C6    C16   1.406364 A    
C26   N8    1.439491 S    
C13   C15   1.406216 A    
C2    C24   1.454417 S    
C13   N5    1.439982 S    
C44   C46   1.395423 A    
C50   H27   1.110597 S    
C23   C33   1.400306 A    
C45   H18   1.081776 S    
C24   C34   1.400468 A    
N7    O20   1.301314 A    
C36   H11   1.085592 S    
