data_mof_unit_13986.cif
_audit_creation_date              2012-10-26T20:15:01-0400
_audit_creation_method            fapswitch 2.2
_symmetry_space_group_name_H-M    P1
_symmetry_Int_Tables_number       1
_space_group_crystal_system       triclinic
_cell_length_a                    17.747586
_cell_length_b                    9.081037
_cell_length_c                    7.946228
_cell_angle_alpha                 90.000657
_cell_angle_beta                  91.625789
_cell_angle_gamma                 89.997235
_cell_volume                      1280.15009836

loop_
_atom_site_label
_atom_site_type_symbol
_atom_type_description
_atom_site_fract_x
_atom_site_fract_y
_atom_site_fract_z
_atom_type_partial_charge
C1    C     C_R   0.500001 0.220669 0.499999 0.538481
C2    C     C_R   0.844034 0.535170 0.354513 0.048310
C3    C     C_R   0.766003 0.574848 0.650019 0.345131
C4    C     C_R   0.233978 0.574779 0.349937 0.345068
C5    C     C_R   0.232395 0.499642 0.642685 0.330114
C6    C     C_R   0.767606 0.499635 0.357303 0.330037
C7    C     C_R   0.727567 0.518521 0.506016 -0.016246
C8    C     C_R   0.272430 0.518530 0.493977 -0.016200
C9    C     C_R   0.884071 0.570273 0.502658 -0.131399
C10   C     C_R   0.115910 0.570203 0.497313 -0.131606
C11   C     C_1   0.965931 0.580594 0.500476 0.062289
C12   C     C_R   0.499999 0.779331 0.500001 0.541343
C13   C     C_1   0.034052 0.580574 0.499522 0.061964
C14   C     C_2   0.880228 0.694141 0.778825 0.689751
C15   C     C_2   0.119727 0.693929 0.220996 0.690051
C16   C     C_2   0.126304 0.590632 0.801387 0.680468
C17   C     C_2   0.873646 0.590862 0.198579 0.679995
C18   C     C_1   0.500000 0.065536 0.500000 0.006983
C19   C     C_1   0.500000 0.934456 0.500000 0.009317
C20   C     C_R   0.355398 0.502505 0.497839 0.579447
C21   C     C_R   0.644603 0.502485 0.502160 0.579444
C22   C     C_R   0.843841 0.603418 0.646850 0.012605
C23   C     C_R   0.156132 0.603310 0.353080 0.012434
C24   C     C_R   0.155955 0.535053 0.645445 0.048535
Cu1   Cu    Cu3+1 0.500000 0.500000 0.669080 1.188725
Cu2   Cu    Cu3+1 0.500000 0.500000 0.330920 1.188701
F1    F     F_    0.727758 0.609076 0.790577 -0.531195
F2    F     F_    0.272217 0.608987 0.209365 -0.531213
F3    F     F_    0.268567 0.461654 0.789521 -0.535672
F4    F     F_    0.731433 0.461594 0.210504 -0.535621
H1    H     H_    0.966311 0.552557 0.822870 0.334187
H2    H     H_    0.033616 0.552397 0.177143 0.334139
H3    H     H_    0.078991 0.773306 0.906996 0.420656
H4    H     H_    0.920768 0.773647 0.092705 0.420503
N1    N     N_1   0.500000 0.500000 0.076820 -0.026539
N2    N     N_1   0.500000 0.500000 0.923180 -0.026537
O1    O     O_R   0.500000 0.288390 0.642760 -0.502123
O2    O     O_R   0.951833 0.658804 0.843515 -0.661529
O3    O     O_2   0.150830 0.805825 0.173673 -0.386627
O4    O     O_R   0.048109 0.658618 0.156392 -0.660802
O5    O     O_2   0.123851 0.512247 0.925656 -0.427340
O6    O     O_R   0.103336 0.738295 0.801999 -0.631270
O7    O     O_2   0.875631 0.512805 0.073926 -0.426524
O8    O     O_R   0.897014 0.738305 0.198401 -0.631353
O9    O     O_R   0.500000 0.711610 0.357240 -0.497476
O10   O     O_R   0.500000 0.711610 0.642760 -0.497459
O11   O     O_R   0.500000 0.288390 0.357240 -0.502122
O12   O     O_R   0.391250 0.500000 0.642840 -0.444588
O13   O     O_R   0.608750 0.500000 0.357160 -0.444603
O14   O     O_R   0.608750 0.500000 0.642840 -0.447739
O15   O     O_R   0.391250 0.500000 0.357160 -0.447751
O16   O     O_2   0.849114 0.806120 0.826028 -0.387144

loop_
_geom_bond_atom_site_label_1
_geom_bond_atom_site_label_2
_ccdc_geom_bond_type
C5    C8    A    
C17   O7    D    
C6    C7    A    
C10   C23   A    
C14   O2    S    
C9    C11   S    
C5    F3    S    
N1    N2    T    
H1    O2    S    
C1    O1    A    
C4    C8    A    
Cu1   O1    S    
C15   C23   S    
C14   C22   S    
C3    F1    S    
C17   O8    S    
C16   C24   S    
C20   O12   A    
Cu2   O15   S    
C2    C17   S    
C11   C13   T    
Cu1   O12   S    
C15   O3    D    
C1    C18   S    
C8    C20   S    
C5    C24   A    
Cu2   O11   S    
H3    O6    S    
C16   O5    D    
C12   C19   S    
C21   O13   A    
C21   O14   A    
C4    F2    S    
C20   O15   A    
C3    C7    A    
H2    O4    S    
C15   O4    S    
C9    C22   A    
Cu1   N2    S    
C16   O6    S    
Cu2   N1    S    
H4    O8    S    
C12   O10   A    
C18   C19   T    
Cu2   O13   S    
C4    C23   A    
Cu1   O14   S    
C1    O11   A    
C3    C22   A    
Cu2   O9    S    
C10   C24   A    
Cu1   Cu2   S    
C7    C21   S    
C2    C9    A    
Cu1   O10   S    
C6    F4    S    
C14   O16   D    
C2    C6    A    
C12   O9    A    
C10   C13   S    
