data_mof_unit_8950.cif
_audit_creation_date              2012-12-10T17:30:20-0500
_audit_creation_method            fapswitch 2.2
_symmetry_space_group_name_H-M    P1
_symmetry_Int_Tables_number       1
_space_group_crystal_system       triclinic
_cell_length_a                    12.141716
_cell_length_b                    12.861251
_cell_length_c                    14.843194
_cell_angle_alpha                 92.037765
_cell_angle_beta                  87.519861
_cell_angle_gamma                 92.861337
_cell_volume                      2311.52423043

loop_
_atom_site_label
_atom_site_type_symbol
_atom_type_description
_atom_site_fract_x
_atom_site_fract_y
_atom_site_fract_z
_atom_type_partial_charge
Br1   Br    Br    0.985943 0.238676 0.408517 -0.327105
Br2   Br    Br    0.011629 0.761422 0.589217 -0.293678
Br3   Br    Br    0.637355 0.993955 0.721505 -0.544688
Br4   Br    Br    0.220875 0.976845 0.425416 -0.382279
Br5   Br    Br    0.208632 0.370480 0.372146 -0.421889
Br6   Br    Br    0.790536 0.628062 0.629396 -0.426561
Br7   Br    Br    0.252122 0.686886 0.645247 -0.394447
Br8   Br    Br    0.747473 0.318716 0.349657 -0.442494
C1    C     C_R   0.521199 0.699519 0.498152 0.890320
C2    C     C_R   0.370879 0.139947 0.476496 -0.247171
C3    C     C_R   0.459164 0.869960 0.462377 0.147451
C4    C     C_R   0.545649 0.129124 0.551078 0.114747
C5    C     C_R   0.447686 0.973669 0.491901 0.012475
C6    C     C_R   0.527084 0.020471 0.550746 0.028355
C7    C     C_R   0.948736 0.381376 0.435768 0.244895
C8    C     C_R   0.050643 0.618883 0.563299 0.243434
C9    C     C_R   0.836661 0.402397 0.431134 0.288379
C10   C     C_R   0.163097 0.598904 0.567287 0.307765
C11   C     C_R   0.859383 0.546640 0.533741 0.382929
C12   C     C_R   0.479090 0.299979 0.505107 0.899981
C13   C     C_R   0.140319 0.452566 0.467078 0.375836
C14   C     C_R   0.976955 0.542540 0.524466 -0.192791
C15   C     C_R   0.022646 0.456862 0.475885 -0.182673
C16   C     C_R   0.501650 0.501367 0.672773 0.877274
C17   C     C_R   0.498775 0.496606 0.327265 0.888502
C18   C     C_R   0.501276 0.396736 0.182761 0.150457
C19   C     C_R   0.528609 0.598727 0.816702 0.139590
C20   C     C_R   0.499269 0.492561 0.231060 -0.032450
C21   C     C_R   0.508045 0.504189 0.768682 -0.028102
C22   C     C_R   0.520799 0.586434 0.189884 -0.265367
C23   C     C_R   0.582726 0.685715 0.961397 0.141879
C24   C     C_R   0.510495 0.408809 0.808632 -0.270718
C25   C     C_R   0.537918 0.590052 0.097142 0.095063
C26   C     C_R   0.524457 0.403538 0.900739 0.094879
C27   C     C_R   0.536131 0.495054 0.045956 -0.054370
C28   C     C_R   0.538898 0.497866 0.951848 -0.046800
C29   C     C_R   0.527441 0.397554 0.088842 0.074411
C30   C     C_R   0.551710 0.595262 0.909084 0.072685
C31   C     C_R   0.561747 0.686101 0.055228 0.188150
C32   C     C_R   0.528038 0.306373 0.942130 0.156405
C33   C     C_3   0.463766 0.297528 0.230271 -0.816533
C34   C     C_R   0.543146 0.305110 0.035615 0.166848
C35   C     C_3   0.513667 0.700976 0.771762 -0.799223
C36   C     C_3   0.564526 0.788333 0.109923 -0.883485
C37   C     C_3   0.516421 0.204942 0.886915 -0.816511
C38   C     C_3   0.656733 0.772363 0.921715 -0.801246
C39   C     C_3   0.596142 0.212743 0.073562 -0.845028
C40   C     C_3   0.654782 0.179459 0.581434 -0.704373
C41   C     C_3   0.408633 0.826087 0.376571 -0.769837
C42   C     C_R   0.465990 0.188199 0.511590 -0.128804
C43   C     C_R   0.531956 0.810308 0.507021 -0.097698
C44   C     C_R   0.588732 0.955915 0.602226 0.293476
C45   C     C_R   0.361363 0.033325 0.464896 0.296938
C46   C     C_R   0.594015 0.852194 0.577148 -0.227997
H1    H     H_    0.526363 0.656388 0.232171 0.143185
H2    H     H_    0.594559 0.739446 0.754148 0.257781
H3    H     H_    0.485590 0.795715 0.149758 0.242628
H4    H     H_    0.634315 0.791298 0.156030 0.251964
H5    H     H_    0.572844 0.857695 0.067453 0.256745
H6    H     H_    0.438209 0.202086 0.850628 0.245261
H7    H     H_    0.587383 0.199107 0.837566 0.268053
H8    H     H_    0.511898 0.134830 0.928448 0.259797
H9    H     H_    0.716662 0.803705 0.971477 0.254301
H10   H     H_    0.709090 0.742158 0.864503 0.269942
H11   H     H_    0.607390 0.837111 0.900980 0.262798
H12   H     H_    0.501049 0.339036 0.766067 0.148280
H13   H     H_    0.654618 0.177914 0.022815 0.258864
H14   H     H_    0.648251 0.237543 0.130732 0.270851
H15   H     H_    0.532738 0.152006 0.093954 0.241880
H16   H     H_    0.700435 0.216842 0.524237 0.272044
H17   H     H_    0.640324 0.236791 0.637910 0.229752
H18   H     H_    0.714972 0.123879 0.600867 0.267709
H19   H     H_    0.463617 0.769999 0.341705 0.187708
H20   H     H_    0.327889 0.785027 0.392284 0.289246
H21   H     H_    0.399497 0.888106 0.327683 0.247641
H22   H     H_    0.305840 0.185424 0.452992 0.237750
H23   H     H_    0.641267 0.802514 0.616249 0.213794
H24   H     H_    0.414242 0.313462 0.292973 0.256214
H25   H     H_    0.409396 0.247438 0.186842 0.257719
H26   H     H_    0.535169 0.254775 0.250368 0.258345
H27   H     H_    0.470121 0.691063 0.708045 0.252509
H28   H     H_    0.463302 0.752679 0.816553 0.265999
N1    N     N_R   0.207800 0.519350 0.516680 -0.175910
N2    N     N_R   0.792200 0.480650 0.483320 -0.172545
O1    O     O_R   0.421700 0.658830 0.504450 -0.581981
O2    O     O_R   0.578300 0.341170 0.495550 -0.597795
O3    O     O_R   0.609310 0.646410 0.493750 -0.589210
O4    O     O_R   0.390690 0.353590 0.506250 -0.598906
O5    O     O_R   0.406180 0.506230 0.637500 -0.587439
O6    O     O_R   0.593820 0.493770 0.362500 -0.576064
O7    O     O_R   0.593800 0.493820 0.626800 -0.586042
O8    O     O_R   0.406200 0.506180 0.373200 -0.588119
Zn1   Zn    Zn3+2 0.374730 0.508290 0.507150 1.030034
Zn2   Zn    Zn3+2 0.625270 0.491710 0.492850 1.026409

loop_
_geom_bond_atom_site_label_1
_geom_bond_atom_site_label_2
_ccdc_geom_bond_type
C37   H6    S    
Br4   C45   S    
C19   C21   A    
C27   C28   A    
C1    C43   S    
C4    C40   S    
C16   O5    A    
C33   H26   S    
C17   C20   S    
Br6   C11   S    
C17   O6    A    
C25   C31   A    
C26   C32   A    
C27   C29   A    
C21   C24   A    
C19   C30   A    
N1    Zn1   S    
O3    Zn2   S    
C37   H8    S    
C37   H7    S    
C29   C34   A    
C2    C45   A    
C16   C21   S    
C39   H15   S    
C12   C42   S    
O2    Zn2   S    
C1    O1    A    
O1    Zn1   S    
C6    C44   A    
C13   N1    A    
C36   H4    S    
C23   C38   S    
C12   O2    A    
C41   H21   S    
Br1   C7    S    
Br2   C8    S    
C46   H23   S    
C7    C15   A    
C5    C6    A    
C2    H22   S    
C40   H18   S    
C39   H13   S    
C44   C46   A    
O6    Zn2   S    
C5    C45   A    
C32   C37   S    
C11   C14   A    
C38   H11   S    
C33   H24   S    
C38   H10   S    
C24   C26   A    
C3    C41   S    
C36   H3    S    
Br7   C10   S    
C10   N1    A    
N2    Zn2   S    
C4    C6    A    
C13   C15   A    
C35   H27   S    
C41   H19   S    
C40   H17   S    
C11   N2    A    
C2    C42   A    
C16   O7    A    
C39   H14   S    
C24   H12   S    
C7    C9    A    
O4    Zn1   S    
C17   O8    A    
C8    C14   A    
C22   C25   A    
C14   C15   A    
C40   H16   S    
C33   H25   S    
C4    C42   A    
Br3   C44   S    
C18   C29   A    
C31   C36   S    
C22   H1    S    
C18   C20   A    
Br8   C9    S    
C23   C30   A    
C38   H9    S    
C9    N2    A    
C43   C46   A    
C28   C30   A    
C20   C22   A    
C1    O3    A    
O7    Zn2   S    
C3    C5    A    
C12   O4    A    
C32   C34   A    
O8    Zn1   S    
C25   C27   A    
C23   C31   A    
C26   C28   A    
C34   C39   S    
O5    Zn1   S    
C3    C43   A    
C19   C35   S    
C35   H2    S    
Br5   C13   S    
C8    C10   A    
C35   H28   S    
C41   H20   S    
C36   H5    S    
C18   C33   S    
