data_mof_unit_14512.cif
_audit_creation_date              2012-12-10T17:38:18-0500
_audit_creation_method            fapswitch 2.2
_symmetry_space_group_name_H-M    P1
_symmetry_Int_Tables_number       1
_space_group_crystal_system       triclinic
_cell_length_a                    12.30653
_cell_length_b                    13.399766
_cell_length_c                    19.346273
_cell_angle_alpha                 77.728468
_cell_angle_beta                  101.370278
_cell_angle_gamma                 116.581438
_cell_volume                      2768.81275584

loop_
_atom_site_label
_atom_site_type_symbol
_atom_type_description
_atom_site_fract_x
_atom_site_fract_y
_atom_site_fract_z
_atom_type_partial_charge
C1    C     C_R   0.853811 0.287019 0.508487 0.779040
C2    C     C_R   0.996562 0.498768 0.708237 -0.097962
C3    C     C_R   0.010270 0.543332 0.063435 0.419988
C4    C     C_R   0.006161 0.530791 0.924903 0.428402
C5    C     C_R   0.082981 0.492051 0.188037 -0.262117
C6    C     C_R   0.084967 0.478765 0.262304 0.259320
C7    C     C_R   0.007683 0.511215 0.289564 -0.139296
C8    C     C_R   0.933698 0.556419 0.241227 -0.305586
C9    C     C_R   0.934871 0.571072 0.167519 0.279520
C10   C     C_R   0.009411 0.537291 0.140540 -0.024132
C11   C     C_R   0.257132 0.021497 0.453126 0.007336
C12   C     C_R   0.998655 0.498586 0.632401 0.797689
C13   C     C_R   0.225027 0.830737 0.500875 -0.101579
C14   C     C_R   0.815399 0.098975 0.575141 -0.209170
C15   C     C_R   0.737293 0.002350 0.614526 0.307389
C16   C     C_R   0.611551 0.972427 0.602288 -0.290959
C17   C     C_R   0.559387 0.025494 0.543277 0.056848
C18   C     C_R   0.640124 0.127696 0.506242 0.088898
C19   C     C_R   0.430167 0.982743 0.520597 -0.011230
C20   C     C_R   0.384200 0.057117 0.473460 0.062291
C21   C     C_R   0.465637 0.159842 0.440765 -0.222013
C22   C     C_R   0.590011 0.188849 0.451930 -0.189116
C23   C     C_R   0.144652 0.711517 0.496628 0.835987
C24   C     C_R   0.345905 0.866722 0.535441 0.192680
C25   C     C_R   0.179937 0.908578 0.466867 -0.304061
C26   C     C_R   0.769087 0.167365 0.525618 -0.166508
C27   C     C_R   0.351757 0.337237 0.614130 -0.317653
C28   C     C_R   0.765728 0.644988 0.404588 0.049801
C29   C     C_R   0.675154 0.682154 0.382961 -0.298068
C30   C     C_R   0.569076 0.633440 0.417025 0.019275
C31   C     C_R   0.553395 0.542386 0.475269 -0.063677
C32   C     C_R   0.652837 0.509526 0.495443 0.263200
C33   C     C_R   0.448234 0.481607 0.514958 -0.035692
C34   C     C_R   0.001867 0.501957 0.367076 0.805238
C35   C     C_R   0.449845 0.396554 0.573338 0.175264
C36   C     C_R   0.548686 0.369449 0.591052 -0.277302
C37   C     C_R   0.647119 0.424063 0.552724 -0.165309
C38   C     C_R   0.340079 0.498321 0.500283 0.014373
C39   C     C_R   0.250080 0.359892 0.597004 0.048416
C40   C     C_R   0.042941 0.434392 0.762974 0.199872
C41   C     C_R   0.048478 0.445687 0.835054 0.210523
C42   C     C_R   0.001204 0.515964 0.851045 -0.000319
C43   C     C_R   0.948776 0.572959 0.796267 -0.227105
C44   C     C_R   0.947851 0.565624 0.725723 -0.252425
Cu1   Cu    Cu3+1 0.098280 0.475420 0.516260 0.935303
Cu2   Cu    Cu3+1 0.901720 0.524580 0.483740 0.914044
H1    H     H_    0.432755 0.213351 0.400893 0.150455
H2    H     H_    0.913188 0.127202 0.589317 0.159814
H3    H     H_    0.557094 0.909444 0.641036 0.160681
H4    H     H_    0.645664 0.259956 0.416697 0.171464
H5    H     H_    0.173483 0.314728 0.627806 0.147587
H6    H     H_    0.549839 0.304279 0.635041 0.154409
H7    H     H_    0.353475 0.273136 0.658680 0.141122
H8    H     H_    0.325690 0.557018 0.457068 0.151535
H9    H     H_    0.847196 0.684320 0.377711 0.136153
H10   H     H_    0.688506 0.750660 0.339142 0.151905
H11   H     H_    0.718026 0.396578 0.570317 0.210606
H12   H     H_    0.911934 0.626518 0.808062 0.165412
H13   H     H_    0.910645 0.614350 0.684499 0.175919
H14   H     H_    0.139142 0.466586 0.166024 0.177609
H15   H     H_    0.875886 0.583521 0.260649 0.162595
H16   H     H_    0.083469 0.880458 0.447437 0.180271
N1    N     N_R   0.908625 0.530356 0.947963 -0.250260
N2    N     N_R   0.910422 0.535961 0.016120 -0.192140
N3    N     N_R   0.108700 0.546780 0.039617 -0.260882
N4    N     N_R   0.106800 0.540741 0.971738 -0.200055
N5    N     N_R   0.246290 0.438200 0.540910 -0.196718
N6    N     N_R   0.754310 0.561190 0.459520 -0.206797
O1    O     O_R   0.972510 0.318130 0.520450 -0.601084
O2    O     O_R   0.806530 0.359650 0.492990 -0.600760
O3    O     O_R   0.083010 0.479220 0.613590 -0.544261
O4    O     O_R   0.917030 0.520740 0.586130 -0.608982
O5    O     O_R   0.193470 0.640350 0.507010 -0.544763
O6    O     O_R   0.027490 0.681870 0.479550 -0.604330
O7    O     O_R   0.082970 0.479260 0.413870 -0.595609
O8    O     O_R   0.916990 0.520780 0.386410 -0.589300
N7    N     N_2   0.077612 0.355323 0.745170 -0.428148
H17   H     H_    0.147070 0.341167 0.778449 0.243121
C45   C     C_3   0.976424 0.252599 0.725073 -0.653803
H18   H     H_    0.920597 0.206022 0.769740 0.219908
H19   H     H_    0.012118 0.197632 0.710959 0.216612
H20   H     H_    0.916884 0.271495 0.678149 0.222627
C46   C     C_R   0.197315 0.096675 0.418298 0.113397
C47   C     C_R   0.198400 0.174880 0.456599 -0.186682
C48   C     C_R   0.112726 0.220436 0.435673 -0.117985
C49   C     C_R   0.025682 0.188734 0.376614 -0.043058
C50   C     C_R   0.027737 0.115079 0.336126 -0.160168
C51   C     C_R   0.113771 0.069858 0.356431 -0.174844
H21   H     H_    0.259885 0.194579 0.505135 0.149645
H22   H     H_    0.112104 0.278549 0.465994 0.189740
H23   H     H_    0.958404 0.223120 0.361430 0.130024
H24   H     H_    0.961425 0.091552 0.289763 0.128859
H25   H     H_    0.110238 0.008301 0.326672 0.123430
N8    N     N_2   0.381671 0.782138 0.576404 -0.422749
H26   H     H_    0.461828 0.781357 0.569092 0.247376
C52   C     C_3   0.337711 0.735296 0.645610 -0.627560
H27   H     H_    0.365701 0.666365 0.670361 0.226397
H28   H     H_    0.236468 0.700092 0.640398 0.223276
H29   H     H_    0.375297 0.801036 0.681181 0.199984
N9    N     N_2   0.785941 0.940775 0.670939 -0.436143
H30   H     H_    0.725011 0.885776 0.706216 0.248243
C53   C     C_3   0.853268 0.889880 0.649107 -0.694981
H31   H     H_    0.888350 0.845138 0.696691 0.224471
H32   H     H_    0.932866 0.955047 0.622334 0.231993
H33   H     H_    0.792447 0.828012 0.612435 0.227999
N10   N     N_2   0.099624 0.386514 0.891827 -0.421031
H34   H     H_    0.178099 0.383188 0.883795 0.244041
C54   C     C_3   0.012599 0.281880 0.926022 -0.656268
H35   H     H_    0.973839 0.216691 0.890106 0.215459
H36   H     H_    0.937397 0.294176 0.941203 0.234797
H37   H     H_    0.059596 0.251603 0.975169 0.226764
C55   C     C_R   0.484256 0.686165 0.386997 0.076385
C56   C     C_R   0.419443 0.666186 0.319281 -0.180984
C57   C     C_R   0.350045 0.725397 0.285506 -0.130799
C58   C     C_R   0.349809 0.809158 0.317587 -0.123686
C59   C     C_R   0.420477 0.834690 0.382774 -0.118505
C60   C     C_R   0.487261 0.773301 0.417776 -0.134896
H38   H     H_    0.424966 0.606155 0.292282 0.142263
H39   H     H_    0.298972 0.708268 0.233738 0.145375
H40   H     H_    0.298004 0.856669 0.290946 0.122904
H41   H     H_    0.426009 0.904361 0.404767 0.140104
H42   H     H_    0.545080 0.796425 0.467007 0.124648
N11   N     N_2   0.164090 0.434316 0.308891 -0.418050
H43   H     H_    0.220634 0.483491 0.346865 0.274381
C61   C     C_3   0.224297 0.382794 0.280436 -0.704880
H44   H     H_    0.273307 0.345633 0.324830 0.241757
H45   H     H_    0.292618 0.446392 0.245446 0.207250
H46   H     H_    0.156056 0.314715 0.250005 0.245035
N12   N     N_2   0.862268 0.621607 0.121277 -0.409711
H47   H     H_    0.782648 0.605408 0.140511 0.247195
C62   C     C_3   0.929406 0.740236 0.096764 -0.676933
H48   H     H_    0.964497 0.788892 0.142471 0.208260
H49   H     H_    0.867873 0.771671 0.058394 0.230574
H50   H     H_    0.007288 0.754206 0.069299 0.236556

loop_
_geom_bond_atom_site_label_1
_geom_bond_atom_site_label_2
_ccdc_geom_bond_type
C39   H5    S    
C50   C51   A    
Cu1   O3    S    
C41   C42   A    
C35   C36   A    
C18   C26   A    
C15   N9    S    
C43   C44   A    
C62   H50   S    
C2    C12   S    
Cu2   O8    S    
C57   C58   A    
N11   H43   S    
N7    H17   S    
C59   C60   A    
C4    N1    A    
C61   H44   S    
N10   C54   S    
C46   C47   A    
C5    C6    A    
C28   C29   A    
C28   N6    A    
N12   H47   S    
C49   H23   S    
C55   C60   A    
N11   C61   S    
N10   H34   S    
C11   C25   A    
C44   H13   S    
C15   C16   A    
C52   H29   S    
C54   H35   S    
C13   C23   S    
C53   H33   S    
Cu1   O5    S    
C43   H12   S    
C17   C19   A    
C19   C20   A    
C27   C39   A    
C8    C9    A    
C52   H28   S    
Cu1   N5    S    
C61   H46   S    
C31   C33   A    
C2    C40   A    
C9    C10   A    
Cu2   O4    S    
C57   H39   S    
C36   H6    S    
C8    H15   S    
C32   N6    A    
C46   C51   A    
C12   O4    A    
C50   H24   S    
C13   C25   A    
C3    N3    A    
C6    N11   S    
C23   O5    A    
C55   C56   A    
C28   H9    S    
N7    C45   S    
C11   C20   A    
C41   N10   S    
Cu1   O1    S    
C53   H31   S    
C7    C8    A    
C16   H3    S    
C59   H41   S    
C2    C44   A    
C45   H19   S    
C49   C50   A    
C16   C17   A    
C14   H2    S    
C11   C46   S    
C48   C49   A    
C1    O1    A    
N1    N2    A    
C13   C24   A    
C30   C55   S    
C53   H32   S    
C60   H42   S    
Cu2   N6    S    
C29   C30   A    
C24   N8    S    
C31   C32   A    
C38   H8    S    
C52   H27   S    
C14   C26   A    
N9    C53   S    
C17   C18   A    
C32   C37   A    
C47   C48   A    
N8    C52   S    
C40   C41   A    
C12   O3    A    
C58   H40   S    
C1    C26   S    
C7    C34   S    
C45   H18   S    
C42   C43   A    
C23   O6    A    
C62   H48   S    
Cu2   O6    S    
C56   C57   A    
C51   H25   S    
C36   C37   A    
C5    H14   S    
C20   C21   A    
C18   C22   A    
C39   N5    A    
C1    O2    A    
C62   H49   S    
C45   H20   S    
C48   H22   S    
C27   H7    S    
C6    C7    A    
C29   H10   S    
C9    N12   S    
C34   O7    A    
C33   C38   A    
C54   H37   S    
C22   H4    S    
Cu1   O7    S    
C27   C35   A    
C19   C24   A    
C5    C10   A    
C3    C10   S    
C4    N4    A    
C30   C31   A    
C4    C42   S    
N9    H30   S    
C33   C35   A    
C54   H36   S    
C25   H16   S    
C40   N7    S    
C3    N2    A    
N8    H26   S    
Cu2   O2    S    
C56   H38   S    
Cu1   Cu2   S    
C38   N5    A    
N3    N4    A    
C47   H21   S    
C61   H45   S    
C14   C15   A    
N12   C62   S    
C21   C22   A    
C37   H11   S    
C58   C59   A    
C34   O8    A    
C21   H1    S    
