data_mof_unit_44746.cif
_audit_creation_date              2012-12-11T15:15:48-0500
_audit_creation_method            fapswitch 2.2
_symmetry_space_group_name_H-M    P1
_symmetry_Int_Tables_number       1
_space_group_crystal_system       triclinic
_cell_length_a                    20.587637
_cell_length_b                    22.849844
_cell_length_c                    6.939084
_cell_angle_alpha                 89.999871
_cell_angle_beta                  87.021653
_cell_angle_gamma                 89.999972
_cell_volume                      3259.90439248

loop_
_atom_site_label
_atom_site_type_symbol
_atom_type_description
_atom_site_fract_x
_atom_site_fract_y
_atom_site_fract_z
_atom_type_partial_charge
O1    O     O_R   0.387100 0.552640 0.378490 -0.542504
O2    O     O_R   0.612900 0.052640 0.621510 -0.542508
O3    O     O_R   0.249610 0.559600 0.072250 -0.546809
O4    O     O_R   0.750390 0.059600 0.927750 -0.546816
O5    O     O_R   0.249120 0.447360 0.902040 -0.545074
O6    O     O_R   0.750880 0.947360 0.097960 -0.545076
C1    C     C_R   0.227457 0.573849 0.244363 0.739805
C2    C     C_R   0.772543 0.073850 0.755637 0.739798
O7    O     O_R   0.386610 0.559560 0.048860 -0.533237
O8    O     O_R   0.613390 0.059560 0.951140 -0.533209
O9    O     O_R   0.387100 0.447320 0.878470 -0.537386
O10   O     O_R   0.612900 0.947320 0.121530 -0.537388
C3    C     C_R   0.406853 0.575674 0.215021 0.789468
C4    C     C_R   0.593145 0.075673 0.784979 0.789489
O11   O     O_R   0.249120 0.552680 0.402050 -0.546975
O12   O     O_R   0.750880 0.052680 0.597950 -0.546976
O13   O     O_3   0.318110 0.463180 0.223790 -0.371522
O14   O     O_3   0.681890 0.963180 0.776210 -0.371526
V1    V     V_3+5 0.318110 0.506830 0.948930 1.420082
V2    V     V_3+5 0.681890 0.006830 0.051070 1.420113
O15   O     O_R   0.386610 0.440400 0.548840 -0.539420
O16   O     O_R   0.613390 0.940400 0.451160 -0.539421
C5    C     C_R   0.407807 0.425269 0.714732 0.695446
C6    C     C_R   0.592193 0.925268 0.285268 0.695444
O17   O     O_R   0.249610 0.440440 0.572240 -0.544719
O18   O     O_R   0.750390 0.940440 0.427760 -0.544719
C7    C     C_R   0.227265 0.426436 0.744378 0.696298
C8    C     C_R   0.772735 0.926436 0.255622 0.696292
V3    V     V_3+5 0.318110 0.493170 0.448930 1.427108
V4    V     V_3+5 0.681890 0.993170 0.551070 1.427110
O19   O     O_3   0.318110 0.536820 0.723940 -0.377761
O20   O     O_3   0.681890 0.036820 0.276060 -0.377757
C9    C     C_R   0.174415 0.382824 0.761196 -0.069137
C10   C     C_R   0.825585 0.882823 0.238805 -0.069136
C11   C     C_R   0.134171 0.373853 0.607453 -0.151582
C12   C     C_R   0.865828 0.873852 0.392547 -0.151581
C13   C     C_R   0.084597 0.332459 0.621652 -0.138561
C14   C     C_R   0.915402 0.832457 0.378349 -0.138561
C15   C     C_R   0.074351 0.298189 0.788965 0.079152
C16   C     C_R   0.925647 0.798187 0.211036 0.079152
C17   C     C_R   0.114694 0.307236 0.946471 0.016974
C18   C     C_R   0.885303 0.807234 0.053531 0.016973
C19   C     C_R   0.164152 0.349639 0.930187 -0.222929
C20   C     C_R   0.835846 0.849638 0.069814 -0.222930
C21   C     C_R   0.906925 0.176625 0.888348 -0.131497
C22   C     C_R   0.093069 0.676619 0.111656 -0.131486
C23   C     C_R   0.859080 0.133441 0.901279 -0.192476
C24   C     C_R   0.140914 0.633435 0.098726 -0.192486
C25   C     C_R   0.837750 0.148499 0.564579 -0.160146
C26   C     C_R   0.162252 0.648501 0.435416 -0.160129
C27   C     C_R   0.885140 0.192328 0.552483 -0.133994
C28   C     C_R   0.114862 0.692330 0.447510 -0.133992
C29   C     C_R   0.920574 0.206216 0.713429 0.153377
C30   C     C_R   0.079424 0.706214 0.286569 0.153377
C31   C     C_2   0.025098 0.250572 0.793093 -0.142657
C32   C     C_2   0.974899 0.750569 0.206909 -0.142656
C33   C     C_2   0.969778 0.253278 0.698518 -0.179817
C34   C     C_2   0.030220 0.753276 0.301478 -0.179812
C35   C     C_R   0.824134 0.118744 0.739471 -0.026380
C36   C     C_R   0.175865 0.618743 0.260528 -0.026384
H1    H     H_    0.140981 0.398907 0.475385 0.127593
H2    H     H_    0.859018 0.898906 0.524615 0.127593
H3    H     H_    0.849417 0.111642 0.038402 0.118661
H4    H     H_    0.150575 0.611634 0.961607 0.118664
H5    H     H_    0.811129 0.138594 0.437977 0.116276
H6    H     H_    0.188876 0.638599 0.562013 0.116280
H7    H     H_    0.959795 0.290544 0.607794 0.136276
H8    H     H_    0.040204 0.790543 0.392196 0.136276
H9    H     H_    0.932183 0.187673 0.016467 0.135244
H10   H     H_    0.067808 0.687664 0.983539 0.135246
H11   H     H_    0.195004 0.356758 0.049913 0.159425
H12   H     H_    0.804994 0.856757 0.950089 0.159425
H13   H     H_    0.034637 0.211683 0.876775 0.155341
H14   H     H_    0.965359 0.711680 0.123233 0.155337
H15   H     H_    0.055634 0.326288 0.497898 0.152759
H16   H     H_    0.944365 0.826286 0.502103 0.152759
H17   H     H_    0.894550 0.215112 0.416949 0.122010
H18   H     H_    0.105454 0.715116 0.583040 0.122011
C37   C     C_R   0.576906 0.365104 0.741367 -0.135858
C38   C     C_R   0.423094 0.865105 0.258640 -0.135860
H19   H     H_    0.534946 0.450422 0.717625 0.103973
H20   H     H_    0.465054 0.950423 0.282384 0.103974
H21   H     H_    0.666694 0.285860 0.793836 0.142075
H22   H     H_    0.333305 0.785861 0.206165 0.142103
H23   H     H_    0.625599 0.382754 0.748331 0.112340
H24   H     H_    0.374401 0.882755 0.251679 0.112343
C39   C     C_R   0.461878 0.382862 0.717944 -0.041534
C40   C     C_R   0.538122 0.882862 0.282057 -0.041534
C41   C     C_R   0.477241 0.095959 0.762239 -0.184420
C42   C     C_R   0.522758 0.595960 0.237751 -0.184406
C43   C     C_R   0.424244 0.132443 0.741075 -0.108457
C44   C     C_R   0.575755 0.632443 0.258908 -0.108462
C45   C     C_R   0.432018 0.192883 0.735489 -0.122735
C46   C     C_R   0.567982 0.692883 0.264495 -0.122736
C47   C     C_R   0.493620 0.219041 0.754354 0.019839
C48   C     C_R   0.506380 0.719042 0.245639 0.019853
C49   C     C_R   0.548480 0.181320 0.781596 -0.028398
C50   C     C_R   0.451519 0.681321 0.218401 -0.028418
C51   C     C_R   0.502281 0.281438 0.744998 0.070677
C52   C     C_R   0.497719 0.781439 0.254999 0.070680
C53   C     C_R   0.565931 0.304547 0.754791 0.072866
C54   C     C_R   0.434069 0.804548 0.245212 0.072853
C55   C     C_R   0.618393 0.267565 0.783487 -0.279014
C56   C     C_R   0.381606 0.767567 0.216520 -0.278990
C57   C     C_R   0.610031 0.207240 0.807637 0.394000
C58   C     C_R   0.389968 0.707242 0.192370 0.393978
C59   C     C_R   0.450249 0.322118 0.727284 -0.192253
C60   C     C_R   0.549751 0.822119 0.272712 -0.192255
C61   C     C_R   0.525377 0.403806 0.723615 -0.168893
C62   C     C_R   0.474623 0.903806 0.276391 -0.168891
C63   C     C_R   0.539458 0.118993 0.781785 -0.086952
C64   C     C_R   0.460540 0.618994 0.218213 -0.086979
H25   H     H_    0.400225 0.308397 0.725134 0.094041
H26   H     H_    0.599775 0.808397 0.274859 0.094041
H27   H     H_    0.469748 0.048999 0.761005 0.103953
H28   H     H_    0.530250 0.549000 0.238984 0.103955
H29   H     H_    0.388704 0.217910 0.713788 0.110759
H30   H     H_    0.611296 0.717910 0.286191 0.110758
H31   H     H_    0.376560 0.113579 0.725436 0.119897
H32   H     H_    0.623440 0.613578 0.274541 0.119896
O21   O     O_3   0.663088 0.173985 0.854378 -0.569168
C65   C     C_3   0.675116 0.183969 0.050430 -0.199404
H33   H     H_    0.631961 0.172465 0.146468 0.133171
H34   H     H_    0.690145 0.229948 0.076023 0.120868
H35   H     H_    0.715882 0.155752 0.091471 0.164220
O22   O     O_3   0.336907 0.673992 0.145645 -0.569175
C66   C     C_3   0.324912 0.683938 0.949550 -0.199370
H36   H     H_    0.368039 0.672314 0.853600 0.133264
H37   H     H_    0.310007 0.729935 0.923748 0.120822
H38   H     H_    0.284076 0.655794 0.908599 0.164164
C67   C     C_2   0.106548 0.274252 0.131005 0.695543
O23   O     O_2   0.052913 0.256920 0.189756 -0.582237
O24   O     O_R   0.160493 0.264496 0.241286 -0.667089
H39   H     H_    0.149079 0.241769 0.363908 0.301428
C68   C     C_2   0.893448 0.774250 0.868998 0.695544
O25   O     O_2   0.947083 0.756917 0.810248 -0.582235
O26   O     O_R   0.839504 0.764495 0.758716 -0.667090
H40   H     H_    0.850917 0.741768 0.636096 0.301427

loop_
_geom_bond_atom_site_label_1
_geom_bond_atom_site_label_2
_ccdc_geom_bond_type
V4    O20   S    
C41   H27   S    
O22   C66   S    
O13   V3    S    
C42   C64   A    
O4    C2    A    
V1    O19   S    
C56   C58   A    
C68   O25   D    
C15   C17   A    
C14   H16   S    
C7    C9    S    
O9    V1    S    
C18   C20   A    
H20   C62   S    
O16   C6    A    
C11   C13   A    
C3    C64   S    
O3    C1    A    
C27   H17   S    
C2    C35   S    
C23   H3    S    
C49   C63   A    
C47   C51   A    
C24   H4    S    
O12   V4    S    
C60   H26   S    
O7    C3    A    
C59   H25   S    
C38   H24   S    
C9    C11   A    
O5    C7    A    
O7    V1    S    
O6    C8    A    
O8    V2    S    
C25   C27   A    
C48   C50   A    
C26   C28   A    
O3    V1    S    
O14   V4    S    
C42   H28   S    
C41   C43   A    
C10   C12   A    
C24   C36   A    
C40   C62   A    
C16   C18   A    
C13   H15   S    
C8    C10   S    
C2    O12   A    
C5    C39   S    
C17   C19   A    
O10   V2    S    
C45   H29   S    
C33   H7    S    
C28   H18   S    
O1    V3    S    
C28   C30   A    
O11   V3    S    
C21   C23   A    
O17   V3    S    
C4    C63   S    
C13   C15   A    
C22   C24   A    
C52   C60   A    
C23   C35   A    
C32   H14   S    
C37   C61   A    
C21   H9    S    
C9    C19   A    
C57   O21   S    
C50   C64   A    
C11   H1    S    
O8    C4    A    
C17   C67   S    
C29   C33   S    
C1    O11   A    
C12   H2    S    
C16   C32   S    
C58   O22   S    
O15   V3    S    
C38   C54   A    
C18   C68   S    
C27   C29   A    
C31   H13   S    
C54   C56   A    
C66   H37   S    
C43   C45   A    
C6    C40   S    
C42   C44   A    
C22   C30   A    
C44   C46   A    
C10   C20   A    
C55   C57   A    
C46   C48   A    
C26   H6    S    
O21   C65   S    
C25   H5    S    
O5    V1    S    
C34   H8    S    
C51   C53   A    
H19   C61   S    
O18   V4    S    
C31   C33   D    
O24   H39   S    
H22   C56   S    
C43   H31   S    
O1    C3    A    
C65   H34   S    
C66   H36   S    
C1    C36   S    
C37   H23   S    
C51   C59   A    
C52   C54   A    
V2    O20   S    
C68   O26   S    
C41   C63   A    
C19   H11   S    
O16   V4    S    
C67   O24   S    
C39   C59   A    
C25   C35   A    
C47   C49   A    
C39   C61   A    
C15   C31   S    
O6    V2    S    
O26   H40   S    
O10   C6    A    
O18   C8    A    
C50   C58   A    
O2    V4    S    
C26   C36   A    
H21   C55   S    
C65   H35   S    
O15   C5    A    
C44   H32   S    
C66   H38   S    
C49   C57   A    
V3    O19   S    
C12   C14   A    
C14   C16   A    
C46   H30   S    
C45   C47   A    
C40   C60   A    
C48   C52   A    
O9    C5    A    
O13   V1    S    
C32   C34   D    
C20   H12   S    
O14   V2    S    
O2    C4    A    
C22   H10   S    
C21   C29   A    
O4    V2    S    
C30   C34   S    
C53   C55   A    
C38   C62   A    
C37   C53   A    
C65   H33   S    
C67   O23   D    
O17   C7    A    
