data_mof_unit_67506.cif
_audit_creation_date              2013-03-05T15:41:20-0500
_audit_creation_method            fapswitch 2.2
_symmetry_space_group_name_H-M    P1
_symmetry_Int_Tables_number       1
_space_group_crystal_system       triclinic
_cell_length_a                    10.618193
_cell_length_b                    8.75928
_cell_length_c                    7.514553
_cell_angle_alpha                 103.220227
_cell_angle_beta                  95.241452
_cell_angle_gamma                 93.489833
_cell_volume                      675.129914573

loop_
_atom_site_label
_atom_site_type_symbol
_atom_site_description
_atom_site_fract_x
_atom_site_fract_y
_atom_site_fract_z
_atom_type_partial_charge
O1    O     O_R   0.509190 0.286130 0.619780 -0.561786
O2    O     O_R   0.490810 0.713870 0.380220 -0.561786
O3    O     O_R   0.485310 0.256770 0.308360 -0.530508
O4    O     O_R   0.514690 0.743230 0.691640 -0.530508
C1    C     C_R   0.495809 0.200359 0.453960 0.847458
C2    C     C_R   0.504191 0.799641 0.546040 0.847458
O5    O     O_R   0.328790 0.514640 0.655680 -0.571484
O6    O     O_R   0.671210 0.485360 0.344320 -0.571484
O7    O     O_R   0.304910 0.485280 0.344260 -0.550156
O8    O     O_R   0.695090 0.514720 0.655740 -0.550156
C3    C     C_R   0.259782 0.499710 0.500690 0.879661
C4    C     C_R   0.740217 0.500290 0.499310 0.879661
Cu1   Cu    Cu3+1 0.514140 0.517380 0.684380 1.154680
Cu2   Cu    Cu3+1 0.485860 0.482620 0.315620 1.154680
N1    N     N_2   0.464560 0.456420 0.038510 0.064798
N2    N     N_2   0.535440 0.543580 0.961490 0.064798
C5    C     C_3   0.051175 0.488920 0.667781 -0.251583
C6    C     C_3   0.948825 0.511080 0.332219 -0.251583
C7    C     C_3   0.953870 0.366474 0.536098 0.248823
C8    C     C_3   0.046130 0.633526 0.463902 0.248823
H1    H     H_    0.093714 0.480197 0.805343 0.233035
H2    H     H_    0.906286 0.519803 0.194657 0.233035
C9    C     C_3   0.876646 0.499974 0.498123 -0.225451
C10   C     C_3   0.123354 0.500026 0.501877 -0.225451
C11   C     C_3   0.972532 0.622576 0.628115 0.259824
C12   C     C_3   0.027468 0.377424 0.371885 0.259823
C13   C     C_2   0.480121 0.033508 0.430567 0.057397
C14   C     C_2   0.519879 0.966492 0.569433 0.057397
Br1   Br    Br    0.887936 0.171263 0.585314 -0.295726
Br2   Br    Br    0.112063 0.828737 0.414686 -0.295726
Br3   Br    Br    0.932752 0.800331 0.814790 -0.238382
Br4   Br    Br    0.067248 0.199669 0.185210 -0.238382
Br5   Br    Br    0.335641 0.307798 0.901783 -0.240545
Br6   Br    Br    0.664359 0.692202 0.098217 -0.240545
Br7   Br    Br    0.384661 0.924900 0.197834 -0.280055
Br8   Br    Br    0.615339 0.075100 0.802166 -0.280055

loop_
_geom_bond_atom_site_label_1
_geom_bond_atom_site_label_2
_geom_bond_distance
_ccdc_geom_bond_type
C11   Br3   1.939016 S    
C7    C9    1.532260 S    
O7    Cu2   1.953766 S    
C12   Br4   1.939016 S    
C13   Br7   1.946478 S    
C6    C12   1.545938 S    
O6    C4    1.293533 A    
C5    C11   1.545937 S    
O3    C1    1.298223 A    
C6    H2    1.110607 S    
C8    Br2   1.934298 S    
Cu1   Cu2   2.704185 S    
O5    C3    1.293533 A    
O7    C3    1.292175 A    
C4    C9    1.449632 S    
O2    C2    1.289869 A    
O3    Cu2   1.966160 S    
O8    C4    1.292175 A    
O1    C1    1.289869 A    
C5    C7    1.545933 S    
C10   C12   1.532788 S    
C6    C8    1.545933 S    
C9    C11   1.532787 S    
O2    Cu2   1.968256 S    
C2    C14   1.429028 S    
C5    C10   1.540148 S    
O1    Cu1   1.968255 S    
C8    C11   1.537478 S    
C6    C9    1.540148 S    
C7    Br1   1.934297 S    
C8    C10   1.532259 S    
C3    C10   1.449632 S    
O5    Cu1   1.958255 S    
C14   Br8   1.946477 S    
O4    C2    1.298223 A    
Cu1   N2    2.032015 S    
O4    Cu1   1.966161 S    
C7    C12   1.537478 S    
Cu2   N1    2.032015 S    
O6    Cu2   1.958257 S    
N2    Br6   1.881098 S    
C1    C13   1.429028 S    
N1    Br5   1.881097 S    
C5    H1    1.110607 S    
N1    N2    1.302312 D    
C13   C14   1.357047 D    
O8    Cu1   1.953766 S    
