data_mof_unit_38130.cif
_audit_creation_date              2012-12-11T21:09:49-0500
_audit_creation_method            fapswitch 2.2
_symmetry_space_group_name_H-M    P1
_symmetry_Int_Tables_number       1
_space_group_crystal_system       triclinic
_cell_length_a                    8.257849
_cell_length_b                    19.228248
_cell_length_c                    27.038581
_cell_angle_alpha                 100.79399
_cell_angle_beta                  92.051573
_cell_angle_gamma                 87.522405
_cell_volume                      4211.71011305

loop_
_atom_site_label
_atom_site_type_symbol
_atom_type_description
_atom_site_fract_x
_atom_site_fract_y
_atom_site_fract_z
_atom_type_partial_charge
Ba1   Ba    Ba6+2 0.160260 0.465850 0.521400 1.671738
Ba2   Ba    Ba6+2 0.649930 0.534160 0.478640 1.666620
Br1   Br    Br    0.995870 0.184955 0.347156 -0.569999
Br2   Br    Br    0.621516 0.244502 0.287781 -0.470430
Br3   Br    Br    0.883752 0.216763 0.712231 -0.523976
Br4   Br    Br    0.413879 0.139269 0.433609 -0.665428
Br5   Br    Br    0.306598 0.018962 0.585702 -0.632513
C1    C     C_3   0.412736 0.293151 0.706333 -0.288718
C2    C     C_R   0.990658 0.729055 0.519373 0.056548
C3    C     C_R   0.126026 0.808970 0.457243 -0.169917
C4    C     C_3   0.968199 0.279116 0.629392 0.368930
C5    C     C_R   0.203991 0.746215 0.465750 0.018829
C6    C     C_R   0.690154 0.190716 0.543662 -0.149739
C7    C     C_R   0.614119 0.255844 0.538590 0.043121
C8    C     C_R   0.851304 0.198521 0.472693 -0.108945
C9    C     C_R   0.814067 0.272324 0.480245 0.009917
C10   C     C_R   0.009177 0.844761 0.490806 0.014066
C11   C     C_R   0.129346 0.704187 0.493706 -0.242993
C12   C     C_3   0.435949 0.313914 0.655586 0.302755
C13   C     C_R   0.798871 0.155599 0.506694 0.027964
C14   C     C_R   0.686930 0.298923 0.510831 -0.225517
C15   C     C_R   0.221420 0.957273 0.462532 -0.104319
C16   C     C_3   0.996169 0.210757 0.649755 0.111273
C17   C     C_R   0.315893 0.003944 0.444359 -0.086495
C18   C     C_R   0.271751 0.074670 0.452974 0.321008
C19   C     C_R   0.130738 0.097666 0.478558 -0.046639
C20   C     C_R   0.012658 0.050084 0.486348 0.007543
C21   C     C_R   0.062099 0.975918 0.479610 0.086836
C22   C     C_R   0.853557 0.075931 0.502766 0.022735
C23   C     C_3   0.510687 0.313961 0.384361 0.261469
C24   C     C_R   0.746552 0.023346 0.512755 0.032050
C25   C     C_R   0.794952 0.949294 0.503310 0.014390
C26   C     C_R   0.955661 0.923989 0.490795 0.024067
C27   C     C_R   0.587951 0.040644 0.531328 -0.073595
C28   C     C_3   0.861374 0.625195 0.634990 0.305304
C29   C     C_R   0.495106 0.990441 0.546684 0.271397
C30   C     C_R   0.532189 0.919649 0.529140 -0.096588
C31   C     C_R   0.674441 0.900385 0.503665 -0.151318
C32   C     C_R   0.297709 0.436829 0.174758 0.596880
C33   C     C_R   0.141901 0.545235 0.175520 0.572329
C34   C     C_3   0.546578 0.240052 0.354305 0.140395
C35   C     C_2   0.014349 0.502223 0.270104 -0.073942
C36   C     C_3   0.981802 0.503437 0.325454 0.001154
C37   C     C_1   0.273422 0.486865 0.336969 0.014060
C38   C     C_2   0.305832 0.489182 0.289967 -0.110162
C39   C     C_2   0.168433 0.494979 0.253027 0.209065
C40   C     C_3   0.886382 0.645394 0.692447 -0.224691
C41   C     C_R   0.281625 0.489490 0.099216 -0.078068
C42   C     C_R   0.340880 0.435501 0.124493 -0.040671
C43   C     C_R   0.441878 0.381086 0.099004 -0.050481
C44   C     C_R   0.180448 0.544436 0.124898 -0.035990
C45   C     C_3   0.862189 0.710952 0.371714 0.323083
C46   C     C_2   0.136845 0.513634 0.357048 -0.262024
C47   C     C_2   0.644999 0.474733 0.638430 -0.302489
C48   C     C_R   0.477762 0.435662 0.973141 0.024682
C49   C     C_R   0.291552 0.538158 0.970733 0.002563
C50   C     C_R   0.406174 0.487240 0.946764 0.048401
C51   C     C_R   0.594183 0.386827 0.948096 -0.099013
C52   C     C_3   0.046958 0.284351 0.361013 0.510865
C53   C     C_R   0.634121 0.387094 0.898660 -0.046559
C54   C     C_R   0.562176 0.436750 0.871936 -0.028356
C55   C     C_R   0.448514 0.487430 0.895856 -0.094229
C56   C     C_3   0.876583 0.780438 0.353382 -0.390306
C57   C     C_R   0.375172 0.537063 0.868592 -0.030863
C58   C     C_R   0.435359 0.540221 0.820107 0.584990
C59   C     C_R   0.600313 0.435134 0.821319 0.572830
C60   C     C_2   0.732945 0.460461 0.725670 -0.089135
C61   C     C_3   0.747930 0.432676 0.669991 -0.038478
C62   C     C_1   0.512843 0.509514 0.657491 0.039971
C63   C     C_2   0.467327 0.509759 0.704546 -0.112131
C64   C     C_3   0.071164 0.305804 0.310391 -0.223612
C65   C     C_2   0.585982 0.486662 0.743050 0.176632
C66   C     C_R   0.430694 0.434409 0.023344 0.019021
C67   C     C_3   0.337218 0.706050 0.347926 0.351277
C68   C     C_R   0.323601 0.488545 0.048219 0.052768
C69   C     C_R   0.257614 0.541673 0.022551 0.024098
C70   C     C_R   0.486171 0.380522 0.049720 -0.097993
C71   C     C_R   0.122951 0.598448 0.099867 -0.066659
C72   C     C_R   0.207348 0.581755 0.941312 -0.098382
C73   C     C_R   0.243116 0.580700 0.890851 0.082106
C74   C     C_R   0.160993 0.597358 0.049987 -0.101015
C75   C     C_3   0.402250 0.694816 0.607309 0.241817
C76   C     C_3   0.494415 0.754350 0.640649 -0.209381
C77   C     C_3   0.002230 0.707187 0.707389 -0.156785
C78   C     C_3   0.342281 0.738876 0.299960 -0.042946
C79   C     C_3   0.070014 0.712671 0.760728 -0.446827
C80   C     C_3   0.524815 0.815563 0.614092 -0.272588
C81   C     C_3   0.633196 0.869462 0.646659 -0.362782
C82   C     C_3   0.494156 0.713488 0.268600 -0.194480
C83   C     C_3   0.473165 0.642216 0.233546 -0.402158
C84   C     C_3   0.316716 0.820953 0.311083 -0.183466
C85   C     C_3   0.465654 0.863576 0.330829 -0.366655
C86   C     C_3   0.124653 0.621081 0.861446 -0.177346
C87   C     C_3   0.026174 0.570208 0.822513 -0.403479
C88   C     C_R   0.944556 0.802284 0.523741 -0.126640
H1    H     H_    0.385988 0.368788 0.656935 0.054342
H2    H     H_    0.282240 0.294316 0.714802 0.157771
H3    H     H_    0.422824 0.775217 0.674720 0.124572
H4    H     H_    0.611045 0.732240 0.653521 0.130355
H5    H     H_    0.568100 0.311420 0.648922 -0.024986
H6    H     H_    0.473918 0.331017 0.736225 0.128224
H7    H     H_    0.626139 0.341313 0.391943 0.068554
H8    H     H_    0.456584 0.309849 0.420715 -0.003737
H9    H     H_    0.639971 0.212019 0.374584 0.095713
H10   H     H_    0.433940 0.209755 0.349140 0.134521
H11   H     H_    0.465592 0.239077 0.706322 0.165892
H12   H     H_    0.767546 0.661247 0.710074 0.082242
H13   H     H_    0.746219 0.712715 0.391270 0.112425
H14   H     H_    0.963000 0.705156 0.398744 -0.012863
H15   H     H_    0.875731 0.825518 0.385657 0.078925
H16   H     H_    0.989238 0.779193 0.332446 0.119534
H17   H     H_    0.774683 0.788894 0.327509 0.119240
H18   H     H_    0.213334 0.716533 0.362628 -0.076669
H19   H     H_    0.357054 0.647645 0.338088 0.026205
H20   H     H_    0.234357 0.719071 0.276445 0.095872
H21   H     H_    0.022873 0.272047 0.591717 0.034712
H22   H     H_    0.856228 0.824328 0.551416 0.074357
H23   H     H_    0.934401 0.598035 0.707043 0.095076
H24   H     H_    0.159364 0.829074 0.424542 0.059175
H25   H     H_    0.658988 0.167719 0.575403 0.082576
H26   H     H_    0.925793 0.175859 0.441755 0.123217
H27   H     H_    0.180229 0.651991 0.495896 0.064793
H28   H     H_    0.640587 0.352557 0.511437 0.059940
H29   H     H_    0.285277 0.909266 0.465895 0.083023
H30   H     H_    0.433107 0.986278 0.428948 0.100740
H31   H     H_    0.835143 0.288206 0.625050 -0.080261
H32   H     H_    0.116410 0.152876 0.492749 0.128506
H33   H     H_    0.525143 0.090380 0.531990 0.125203
H34   H     H_    0.163729 0.290278 0.382241 0.065084
H35   H     H_    0.446799 0.880129 0.532769 0.107214
H36   H     H_    0.693297 0.846918 0.484625 0.137769
H37   H     H_    0.430227 0.484274 0.277786 0.116830
H38   H     H_    0.488191 0.338404 0.117251 0.140410
H39   H     H_    0.830925 0.448407 0.750838 0.134915
H40   H     H_    0.723635 0.347981 0.881422 0.140916
H41   H     H_    0.659001 0.347846 0.965792 0.076794
H42   H     H_    0.948983 0.165677 0.621931 0.045060
H43   H     H_    0.562144 0.335989 0.033092 0.079742
H44   H     H_    0.912051 0.503951 0.243940 0.099968
H45   H     H_    0.959275 0.298010 0.286360 0.169263
H46   H     H_    0.048243 0.642373 0.118926 0.122129
H47   H     H_    0.104557 0.614407 0.956221 0.065645
H48   H     H_    0.342622 0.523650 0.714461 0.144930
H49   H     H_    0.116485 0.642390 0.034353 0.072112
H50   H     H_    0.134628 0.539301 0.396426 0.065965
H51   H     H_    0.659537 0.461598 0.597969 0.078666
H52   H     H_    0.127500 0.200262 0.656413 0.136068
H53   H     H_    0.738384 0.604872 0.625911 -0.058417
H54   H     H_    0.951756 0.582874 0.620574 0.092830
H55   H     H_    0.970275 0.717364 0.787761 0.138934
H56   H     H_    0.172529 0.273724 0.290495 0.151078
H57   H     H_    0.148636 0.665007 0.762558 0.185097
H58   H     H_    0.144983 0.760113 0.770696 0.140952
H59   H     H_    0.106010 0.700048 0.681769 0.170723
H60   H     H_    0.936420 0.757845 0.703990 0.133022
H61   H     H_    0.575797 0.890832 0.683188 0.155436
H62   H     H_    0.753336 0.844329 0.653766 0.132670
H63   H     H_    0.652273 0.914134 0.627101 0.158225
H64   H     H_    0.584828 0.795273 0.577996 0.163398
H65   H     H_    0.406567 0.841977 0.606571 0.144119
H66   H     H_    0.440330 0.601451 0.254969 0.136161
H67   H     H_    0.100264 0.362364 0.316113 0.051343
H68   H     H_    0.377649 0.647413 0.204422 0.141960
H69   H     H_    0.588604 0.624745 0.214357 0.149722
H70   H     H_    0.521553 0.752239 0.244579 0.119412
H71   H     H_    0.600013 0.708309 0.293963 0.173229
H72   H     H_    0.429311 0.920744 0.338861 0.140594
H73   H     H_    0.516337 0.849476 0.366267 0.161073
H74   H     H_    0.560155 0.856581 0.302064 0.124471
H75   H     H_    0.272975 0.838205 0.275754 0.119651
H76   H     H_    0.219975 0.836674 0.338766 0.096845
H77   H     H_    0.928418 0.600073 0.805320 0.121611
H78   H     H_    0.288029 0.717169 0.592686 -0.014289
H79   H     H_    0.103783 0.541511 0.792060 0.159763
H80   H     H_    0.968357 0.530959 0.840945 0.135536
H81   H     H_    0.036091 0.654036 0.886697 0.089609
H82   H     H_    0.188366 0.659773 0.844542 0.158022
H83   H     H_    0.472791 0.668918 0.574939 0.092322
N1    N     N_R   0.201089 0.491889 0.200051 -0.427881
N2    N     N_R   0.541736 0.487954 0.795747 -0.420247
O1    O     O_2   0.103290 0.325410 0.465600 -0.462136
O2    O     O_2   0.656622 0.560669 0.334140 -0.488960
O3    O     O_3   0.870624 0.654421 0.330624 -0.602773
O4    O     O_3   0.857760 0.414170 0.470020 -0.463688
O5    O     O_3   0.459840 0.537690 0.560170 -0.496253
O6    O     O_2   0.582520 0.462630 0.379680 -0.452589
O7    O     O_3   0.400556 0.348722 0.355897 -0.632868
O8    O     O_2   0.535373 0.752580 0.480634 -0.520192
O9    O     O_3   0.455951 0.734442 0.383806 -0.618916
O10   O     O_2   0.345303 0.388562 0.195925 -0.563605
O11   O     O_2   0.684291 0.385493 0.799913 -0.578817
O12   O     O_3   0.362201 0.648696 0.638650 -0.639824
O13   O     O_2   0.058302 0.594236 0.198063 -0.597777
O14   O     O_2   0.397757 0.590934 0.800485 -0.626138
O15   O     O_3   0.374170 0.371120 0.556000 -0.477841
O16   O     O_2   0.281311 0.245564 0.521718 -0.447556
O17   O     O_3   0.919474 0.327553 0.385378 -0.632843
O18   O     O_3   0.353464 0.267028 0.618129 -0.591691
O19   O     O_2   0.227790 0.537410 0.620340 -0.447219
O20   O     O_3   0.969630 0.407570 0.582610 -0.487937
O21   O     O_2   0.075044 0.472071 0.673910 -0.509810
O22   O     O_3   0.040843 0.335497 0.662348 -0.569407
O23   O     O_2   0.707020 0.674640 0.534420 -0.474728
O24   O     O_3   0.952550 0.585840 0.530020 -0.489270
O25   O     O_3   0.436140 0.628890 0.444040 -0.458359
O26   O     O_3   0.878844 0.685389 0.613734 -0.652898
O27   O     O_3   0.350480 0.462320 0.439870 -0.469191
O28   O     O_3   0.840680 0.592440 0.417430 -0.488166
P1    P     P_3+3 0.926760 0.336170 0.451740 0.999139
P2    P     P_3+3 0.399470 0.558680 0.614150 0.981788
P3    P     P_3+3 0.959043 0.414761 0.647753 0.960525
P4    P     P_3+3 0.883550 0.663840 0.548300 0.971777
P5    P     P_3+3 0.834413 0.575704 0.351504 0.992035
P6    P     P_3+3 0.407935 0.282806 0.559541 0.989946
P7    P     P_3+3 0.401149 0.440164 0.376854 1.001275
P8    P     P_3+3 0.406035 0.717735 0.442782 0.921689

loop_
_geom_bond_atom_site_label_1
_geom_bond_atom_site_label_2
_ccdc_geom_bond_type
O3    P5    S    
C76   C80   S    
C80   C81   S    
O28   P5    S    
C49   C69   A    
C64   H67   S    
C20   C22   A    
C37   P7    S    
C57   C73   A    
Br5   C29   S    
C9    P1    S    
C81   H63   S    
C85   H72   S    
C45   O3    S    
C50   C55   A    
O22   P3    S    
C1    H2    S    
C28   C40   S    
C78   C84   S    
O4    P1    S    
C38   C39   S    
C49   C50   A    
C19   C20   A    
C9    C14   A    
C49   C72   A    
C34   H10   S    
C81   H61   S    
C7    C14   A    
C29   C30   A    
Ba1   O15   S    
C79   H58   S    
C77   C79   S    
C60   C65   D    
C62   C63   D    
C79   H55   S    
C77   H60   S    
C72   H47   S    
C47   C61   S    
Br2   C34   S    
C2    P4    S    
C51   C53   A    
C8    C9    A    
C67   H19   S    
C80   H65   S    
C7    P6    S    
O1    P1    D    
Ba1   Ba2   S    
C35   C39   D    
C56   H17   S    
C66   C70   A    
O15   P6    S    
C55   C57   A    
C3    H24   S    
C87   H77   S    
C77   H59   S    
C37   C46   D    
C36   C46   S    
C74   H49   S    
C64   H56   S    
O25   P8    S    
C76   H3    S    
C23   H8    S    
O2    P5    D    
C23   C34   S    
C10   C88   A    
C25   C31   A    
C1    H6    S    
C2    C88   A    
C84   H75   S    
C87   H80   S    
C47   H51   S    
C28   H53   S    
C35   H44   S    
C76   H4    S    
C6    C7    A    
C59   O11   D    
C66   C68   A    
C41   C68   A    
C75   H83   S    
Ba1   O19   S    
C10   C26   S    
C54   C59   A    
O27   P7    S    
Ba1   O4    S    
C13   C22   S    
C40   H23   S    
O8    P8    D    
C8    C13   A    
O7    P7    S    
C41   C44   A    
O20   P3    S    
C63   C65   S    
C83   H66   S    
Ba1   P1    S    
C60   C61   S    
C1    C12   S    
C78   H20   S    
C4    H31   S    
Ba2   O24   S    
C70   H43   S    
C71   H46   S    
C84   C85   S    
C32   O10   D    
C78   C82   S    
C51   H41   S    
C18   C19   A    
C60   H39   S    
C67   H18   S    
C16   H52   S    
C45   C56   S    
C88   H22   S    
C25   C26   A    
C83   H69   S    
C53   C54   A    
C4    O22   S    
C48   C66   A    
C14   H28   S    
C68   C69   A    
Ba2   O6    S    
C30   C31   A    
O9    P8    S    
C79   H57   S    
C67   O9    S    
O16   P6    D    
C85   H73   S    
C28   O26   S    
C24   C25   A    
Br3   C16   S    
C75   H78   S    
C85   H74   S    
C82   H70   S    
O6    P7    D    
O24   P4    S    
C46   H50   S    
C63   H48   S    
C24   C27   A    
Ba2   O25   S    
Ba2   O4    S    
C81   H62   S    
C17   C18   A    
C4    H21   S    
C53   H40   S    
O12   P2    S    
C3    C5    A    
C23   H7    S    
C87   H79   S    
C41   C42   A    
C32   C42   A    
C30   H35   S    
C11   H27   S    
C21   C26   A    
C75   C76   S    
C40   H12   S    
C48   C50   A    
C17   H30   S    
C15   C17   A    
O23   P4    D    
Ba1   O20   S    
Ba2   O28   S    
C35   C36   S    
C5    P8    S    
C33   N1    Am   
C3    C10   A    
C36   P5    S    
C43   C70   A    
C6    H25   S    
C37   C38   D    
C58   O14   D    
Br1   C52   S    
C52   H34   S    
C12   O18   S    
Ba1   O1    S    
C8    H26   S    
C6    C13   A    
C75   O12   S    
Ba1   P2    S    
C39   N1    S    
C16   H42   S    
Ba2   O23   S    
C43   H38   S    
C1    H11   S    
C69   C74   A    
C32   N1    Am   
C12   H5    S    
C15   H29   S    
C64   H45   S    
Ba2   O27   S    
C58   N2    Am   
Ba1   O5    S    
C33   C44   A    
C86   C87   S    
C86   H81   S    
Ba2   P4    S    
C34   H9    S    
C84   H76   S    
C83   H68   S    
O19   P2    D    
C23   O7    S    
C56   H15   S    
C82   C83   S    
C44   C71   A    
C22   C24   A    
C31   H36   S    
Br4   C18   S    
C61   P3    S    
C71   C74   A    
C47   C62   D    
C59   N2    Am   
C45   H14   S    
C52   O17   S    
C57   C58   A    
C4    C16   S    
C80   H64   S    
C27   C29   A    
C19   H32   S    
C67   C78   S    
C56   H16   S    
C54   C55   A    
Ba1   O27   S    
C82   H71   S    
Ba2   O5    S    
O17   P1    S    
C72   C73   A    
C40   C77   S    
O26   P4    S    
C2    C11   A    
C45   H13   S    
C38   H37   S    
C27   H33   S    
C42   C43   A    
C48   C51   A    
C5    C11   A    
C20   C21   A    
C65   N2    S    
O5    P2    S    
C15   C21   A    
C62   P2    S    
C28   H54   S    
C86   H82   S    
C73   C86   S    
Ba1   O24   S    
C33   O13   D    
O21   P3    D    
C12   H1    S    
C52   C64   S    
O18   P6    S    
