data_mof_unit_43505.cif
_audit_creation_date              2012-10-26T19:48:45-0400
_audit_creation_method            fapswitch 2.2
_symmetry_space_group_name_H-M    P1
_symmetry_Int_Tables_number       1
_space_group_crystal_system       triclinic
_cell_length_a                    10.723848
_cell_length_b                    9.402939
_cell_length_c                    27.818052
_cell_angle_alpha                 90.107923
_cell_angle_beta                  90.156878
_cell_angle_gamma                 89.996068
_cell_volume                      2805.03693233

loop_
_atom_site_label
_atom_site_type_symbol
_atom_type_description
_atom_site_fract_x
_atom_site_fract_y
_atom_site_fract_z
_atom_type_partial_charge
C1    C     C_R   0.259629 0.500217 0.500090 0.550436
C2    C     C_R   0.386465 0.478191 0.974587 0.018843
C3    C     C_R   0.616303 0.497280 0.974691 0.018820
C4    C     C_R   0.500078 0.499851 0.407459 0.556205
C5    C     C_R   0.501306 0.487310 0.949395 0.033620
C6    C     C_R   0.274386 0.475712 0.947571 -0.140692
C7    C     C_R   0.275368 0.477375 0.897663 -0.112785
C8    C     C_R   0.387848 0.482039 0.872595 0.025009
C9    C     C_R   0.501123 0.486852 0.898271 -0.027516
C10   C     C_R   0.614189 0.491636 0.872686 0.024484
C11   C     C_R   0.611854 0.492360 0.822211 0.398828
C12   C     C_R   0.488059 0.370113 0.279005 -0.057969
C13   C     C_R   0.389663 0.483237 0.822144 0.395768
C14   C     C_R   0.457599 0.614996 0.722808 -0.031899
C15   C     C_R   0.454602 0.620677 0.672264 0.120744
C16   C     C_R   0.740138 0.500208 0.500097 0.552505
C17   C     C_R   0.537603 0.378785 0.670192 -0.182940
C18   C     C_R   0.539925 0.375361 0.720175 -0.073085
C19   C     C_R   0.500042 0.493215 0.746571 0.212337
C20   C     C_R   0.387149 0.473242 0.025661 0.018695
C21   C     C_R   0.501542 0.490281 0.050940 0.033859
C22   C     C_R   0.615871 0.505313 0.025733 0.018633
C23   C     C_R   0.501671 0.497649 0.253713 0.245133
C24   C     C_R   0.277044 0.451044 0.052605 -0.140951
C25   C     C_R   0.724601 0.533456 0.102604 -0.112320
C26   C     C_R   0.728221 0.498146 0.947799 -0.140553
C27   C     C_R   0.726885 0.495661 0.897877 -0.112826
C28   C     C_R   0.497853 0.500286 0.592596 0.558512
C29   C     C_R   0.726076 0.529380 0.052697 -0.140914
C30   C     C_3   0.071244 0.655936 0.500473 -0.233514
C31   C     C_3   0.072221 0.423391 0.545386 -0.232584
C32   C     C_3   0.928528 0.655928 0.500614 -0.232083
C33   C     C_3   0.928268 0.423115 0.545341 -0.232180
C34   C     C_R   0.501580 0.492436 0.102060 -0.027226
C35   C     C_3   0.071521 0.424456 0.454631 -0.231801
C36   C     C_3   0.121715 0.500973 0.500151 0.048587
C37   C     C_3   0.878071 0.500959 0.500162 0.048087
C38   C     C_3   0.927613 0.424718 0.454586 -0.232819
C39   C     C_3   0.592763 0.084068 0.535658 -0.105223
C40   C     C_3   0.592656 0.916254 0.535695 -0.106288
C41   C     C_3   0.376782 0.083826 0.514683 -0.103521
C42   C     C_3   0.376710 0.916365 0.514558 -0.105194
C43   C     C_3   0.531570 0.083410 0.453095 -0.101843
C44   C     C_3   0.531759 0.916116 0.453108 -0.102819
C45   C     C_R   0.389769 0.473017 0.127662 0.024570
C46   C     C_R   0.391900 0.475160 0.178119 0.397622
C47   C     C_R   0.611296 0.516232 0.178179 0.397717
C48   C     C_R   0.514928 0.626039 0.278762 -0.057605
C49   C     C_R   0.514128 0.627061 0.328899 -0.149028
C50   C     C_R   0.487848 0.370706 0.329111 -0.148615
C51   C     C_3   0.405981 0.879536 0.670988 -0.322667
C52   C     C_R   0.278588 0.451207 0.102520 -0.112388
C53   C     C_R   0.613409 0.514065 0.127714 0.024580
C54   C     C_R   0.500628 0.499280 0.354536 0.001885
C55   C     C_R   0.495791 0.500542 0.645686 0.011365
Cu1   Cu    Cu3+1 0.499860 0.642410 0.500020 0.880170
Cu2   Cu    Cu3+1 0.499860 0.357590 0.500020 0.870535
H1    H     H_    0.477198 0.270663 0.347859 0.112704
H2    H     H_    0.106739 0.311755 0.546159 0.117027
H3    H     H_    0.105877 0.713800 0.532833 0.112777
H4    H     H_    0.107196 0.477164 0.578461 0.114603
H5    H     H_    0.894853 0.713221 0.533161 0.117177
H6    H     H_    0.893481 0.476379 0.578464 0.118846
H7    H     H_    0.477922 0.270558 0.259757 0.125664
H8    H     H_    0.893936 0.714860 0.468546 0.120294
H9    H     H_    0.894103 0.311346 0.545959 0.116072
H10   H     H_    0.106287 0.478681 0.421752 0.120915
H11   H     H_    0.105710 0.312714 0.453505 0.118341
H12   H     H_    0.525355 0.724962 0.259318 0.126051
H13   H     H_    0.892660 0.479434 0.421755 0.119978
H14   H     H_    0.893112 0.313112 0.453298 0.120063
H15   H     H_    0.572540 0.122830 0.572585 0.114024
H16   H     H_    0.572296 0.877900 0.572613 0.145817
H17   H     H_    0.687920 0.122464 0.526717 0.112137
H18   H     H_    0.687791 0.877651 0.526804 0.108924
H19   H     H_    0.349518 0.123735 0.550841 0.112737
H20   H     H_    0.348900 0.876416 0.550563 0.118918
H21   H     H_    0.462562 0.120421 0.425970 0.114160
H22   H     H_    0.463027 0.878662 0.425896 0.116376
H23   H     H_    0.811623 0.552079 0.121472 0.166928
H24   H     H_    0.624273 0.123365 0.441368 0.114480
H25   H     H_    0.624634 0.876282 0.441475 0.112773
H26   H     H_    0.304038 0.121048 0.489077 0.113471
H27   H     H_    0.304289 0.879321 0.488754 0.111299
H28   H     H_    0.191612 0.434017 0.121370 0.166805
H29   H     H_    0.425235 0.703593 0.744263 0.129039
H30   H     H_    0.186895 0.475443 0.878763 0.165862
H31   H     H_    0.183394 0.475486 0.963801 0.105425
H32   H     H_    0.187695 0.430414 0.036314 0.107051
H33   H     H_    0.524523 0.727626 0.347513 0.112407
H34   H     H_    0.819295 0.498225 0.964161 0.105431
H35   H     H_    0.326878 0.720954 0.627081 0.251115
H36   H     H_    0.387569 0.963270 0.643777 0.127053
H37   H     H_    0.498774 0.900653 0.687370 0.155715
H38   H     H_    0.331973 0.885147 0.698771 0.151557
H39   H     H_    0.569858 0.286141 0.650649 0.117380
H40   H     H_    0.815214 0.497150 0.879061 0.165576
H41   H     H_    0.572308 0.280714 0.738485 0.134447
H42   H     H_    0.815412 0.548507 0.036396 0.107137
H43   H     H_    0.104865 0.714289 0.468210 0.119032
N1    N     N_R   0.501604 0.496659 0.202207 -0.399041
N2    N     N_R   0.500607 0.488825 0.798094 -0.398255
N3    N     N_3   0.500250 0.143650 0.501060 -0.222481
N4    N     N_3   0.500250 0.856350 0.501060 -0.224139
N5    N     N_2   0.404772 0.741670 0.647772 -0.511884
O1    O     O_R   0.317570 0.620260 0.500030 -0.518551
O2    O     O_2   0.281501 0.478243 0.797268 -0.498511
O3    O     O_2   0.718030 0.536614 0.203076 -0.493789
O4    O     O_2   0.719728 0.498137 0.797412 -0.495560
O5    O     O_R   0.317570 0.379740 0.500030 -0.515396
O6    O     O_R   0.499900 0.620250 0.430280 -0.511812
O7    O     O_R   0.499900 0.379750 0.430280 -0.511476
O8    O     O_R   0.682190 0.620260 0.500010 -0.514623
O9    O     O_R   0.682190 0.379740 0.500010 -0.513895
O10   O     O_R   0.499860 0.620280 0.569750 -0.480602
O11   O     O_R   0.499860 0.379720 0.569750 -0.515655
O12   O     O_2   0.285172 0.456779 0.202953 -0.493622

loop_
_geom_bond_atom_site_label_1
_geom_bond_atom_site_label_2
_ccdc_geom_bond_type
C10   C27   A    
C24   C52   A    
C38   H13   S    
C8    C13   A    
C47   N1    A    
C22   C29   A    
C11   O4    S    
C25   H23   S    
C41   C42   S    
C31   H4    S    
C35   C36   S    
C49   H33   S    
C13   O2    S    
C24   H32   S    
C44   N4    S    
C7    C8    A    
C45   C46   A    
C40   H16   S    
C43   H21   S    
C12   C23   A    
C26   C27   A    
C50   C54   A    
C34   C53   A    
C52   H28   S    
C25   C53   A    
C44   H25   S    
C12   H7    S    
C19   N2    S    
Cu2   O7    S    
C49   C54   A    
C41   H26   S    
C30   H43   S    
C6    H31   S    
Cu1   Cu2   S    
C18   C19   A    
C39   H17   S    
C31   H2    S    
C28   O11   A    
C7    H30   S    
C20   C24   A    
C8    C9    A    
C30   H3    S    
Cu1   O8    S    
C31   C33   S    
C9    C10   A    
C48   H12   S    
Cu1   O6    S    
C33   H6    S    
C16   C37   S    
C47   C53   A    
C4    O7    A    
C21   C22   A    
C16   O8    A    
C2    C6    A    
C28   C55   S    
C33   H9    S    
Cu2   O11   S    
C44   H22   S    
C25   C29   A    
Cu2   N3    S    
C46   N1    A    
C29   H42   S    
C2    C20   A    
C50   H1    S    
C35   C38   S    
C42   H27   S    
C14   H29   S    
C39   C40   S    
C34   C45   A    
C21   C34   A    
C45   C52   A    
C26   H34   S    
C33   C37   S    
C41   N3    S    
C46   O12   S    
C42   N4    S    
C15   C55   A    
C43   C44   S    
C5    C9    A    
C37   C38   S    
C28   O10   A    
C1    O5    A    
C40   N4    S    
Cu2   O5    S    
C35   H10   S    
C51   N5    S    
Cu1   O1    S    
C17   C18   A    
C17   H39   S    
C32   C37   S    
Cu1   N4    S    
C6    C7    A    
C39   H15   S    
C51   H36   S    
C48   C49   A    
C4    O6    A    
C43   H24   S    
C2    C5    A    
C17   C55   A    
C38   H14   S    
C27   H40   S    
C23   C48   A    
C4    C54   S    
C14   C15   A    
C14   C19   A    
C3    C26   A    
C3    C5    A    
C16   O9    A    
C12   C50   A    
C39   N3    S    
Cu2   O9    S    
C1    O1    A    
C40   H18   S    
C30   C36   S    
C15   N5    S    
C32   H5    S    
C41   H19   S    
C30   C32   S    
C23   N1    S    
C35   H11   S    
Cu1   O10   S    
C11   N2    A    
C43   N3    S    
C10   C11   A    
C51   H37   S    
H35   N5    S    
C20   C21   A    
C42   H20   S    
C47   O3    S    
C31   C36   S    
C3    C22   A    
C18   H41   S    
C13   N2    A    
C1    C36   S    
C51   H38   S    
C32   H8    S    
