data_mof_unit_7877.cif
_audit_creation_date              2013-03-05T16:14:47-0500
_audit_creation_method            fapswitch 2.2
_symmetry_space_group_name_H-M    P1
_symmetry_Int_Tables_number       1
_space_group_crystal_system       triclinic
_cell_length_a                    9.460471
_cell_length_b                    10.709168
_cell_length_c                    17.25856
_cell_angle_alpha                 91.197055
_cell_angle_beta                  84.682913
_cell_angle_gamma                 90.915387
_cell_volume                      1740.45301284

loop_
_atom_site_label
_atom_site_type_symbol
_atom_site_description
_atom_site_fract_x
_atom_site_fract_y
_atom_site_fract_z
_atom_type_partial_charge
O1    O     O_R   0.379130 0.683150 0.499960 -0.558981
O2    O     O_R   0.620870 0.316850 0.500040 -0.554566
O3    O     O_R   0.620910 0.683140 0.500000 -0.596045
O4    O     O_R   0.379090 0.316860 0.500000 -0.608261
C1    C     C_R   0.501528 0.739931 0.498347 0.864896
C2    C     C_R   0.498700 0.259926 0.500345 0.871027
O5    O     O_R   0.365090 0.500030 0.613580 -0.514392
O6    O     O_R   0.634910 0.499970 0.386420 -0.516895
O7    O     O_R   0.606870 0.500020 0.613610 -0.621961
O8    O     O_R   0.393130 0.499980 0.386390 -0.621146
C3    C     C_R   0.480692 0.505239 0.649886 0.826691
C4    C     C_R   0.519388 0.495981 0.350100 0.818612
Cu1   Cu    Cu3+1 0.356850 0.500010 0.499980 0.991858
Cu2   Cu    Cu3+1 0.643150 0.499990 0.500020 0.993877
C5    C     C_R   0.469205 0.516766 0.735021 -0.088638
C6    C     C_R   0.531058 0.488728 0.264902 -0.086792
C7    C     C_R   0.570477 0.586038 0.775042 0.150813
C8    C     C_R   0.430100 0.421484 0.223646 0.148549
C9    C     C_R   0.553639 0.588534 0.856501 -0.165827
C10   C     C_R   0.445789 0.424436 0.142275 -0.166430
C11   C     C_R   0.442729 0.523015 0.897872 0.104612
C12   C     C_R   0.555771 0.492954 0.102219 0.104621
C13   C     C_R   0.339491 0.458733 0.857890 0.179400
C14   C     C_R   0.658742 0.555391 0.143339 0.182704
C15   C     C_R   0.354597 0.456383 0.776642 -0.171530
C16   C     C_R   0.644508 0.552556 0.224519 -0.179453
C17   C     C_2   0.440002 0.519728 0.982963 -0.217920
C18   C     C_2   0.558963 0.499517 0.017249 -0.217624
H1    H     H_    0.719088 0.605228 0.256767 0.189078
H2    H     H_    0.279653 0.402344 0.745426 0.195017
H3    H     H_    0.659841 0.489071 0.982459 0.161751
H4    H     H_    0.339206 0.529971 0.017854 0.162093
H5    H     H_    0.371703 0.374344 0.108656 0.153982
H6    H     H_    0.627729 0.640317 0.889259 0.153904
C19   C     C_3   0.415266 0.954599 0.445292 0.029903
C20   C     C_3   0.585096 0.045071 0.550811 -0.000984
C21   C     C_3   0.545659 0.041463 0.428202 0.333404
C22   C     C_3   0.455166 0.958886 0.568057 0.342021
C23   C     C_3   0.496454 0.123507 0.499483 -0.276344
C24   C     C_3   0.504320 0.876112 0.497050 -0.248416
C25   C     C_3   0.365397 0.036550 0.517579 0.048689
C26   C     C_3   0.635172 0.962955 0.478417 0.048034
C27   C     C_3   0.963515 0.482444 0.431894 0.483691
C28   C     C_3   0.036449 0.517619 0.568145 0.482807
C29   C     C_3   0.053747 0.393987 0.473662 -0.185306
C30   C     C_3   0.946211 0.606054 0.526293 -0.181338
H7    H     H_    0.102724 0.309140 0.445924 0.136341
H8    H     H_    0.897149 0.691673 0.552991 0.139273
N1    N     N_3   0.141720 0.500030 0.499940 -0.216560
N2    N     N_3   0.858280 0.499970 0.500060 -0.217212
C31   C     C_3   0.060097 0.588178 0.456570 -0.154008
C32   C     C_3   0.939806 0.411727 0.543459 -0.149612
H9    H     H_    0.113972 0.657749 0.417197 0.139107
H10   H     H_    0.885410 0.340869 0.581970 0.147561
C33   C     C_3   0.695414 0.654458 0.730879 -0.349012
C34   C     C_3   0.783727 0.741995 0.779178 -0.807073
H11   H     H_    0.715348 0.813663 0.810516 0.252132
H12   H     H_    0.839848 0.688241 0.821049 0.264478
H13   H     H_    0.865676 0.790409 0.739932 0.267907
H14   H     H_    0.769245 0.584235 0.702462 0.246581
H15   H     H_    0.654769 0.711400 0.684908 0.229661
C35   C     C_3   0.306593 0.349580 0.266550 -0.345798
C36   C     C_3   0.221061 0.261942 0.216821 -0.810682
H16   H     H_    0.162881 0.315976 0.175984 0.264311
H17   H     H_    0.291799 0.193272 0.184213 0.255109
H18   H     H_    0.140954 0.209958 0.255267 0.267571
H19   H     H_    0.348487 0.291944 0.311810 0.224446
H20   H     H_    0.230965 0.417583 0.295853 0.246763
N3    N     N_R   0.923206 0.459699 0.353508 0.114887
O9    O     O_R   0.871480 0.351138 0.334888 -0.311456
O10   O     O_R   0.962988 0.538161 0.298981 -0.440317
N4    N     N_R   0.076867 0.541122 0.646436 0.114160
O11   O     O_R   0.131135 0.649081 0.664266 -0.324059
O12   O     O_R   0.035518 0.464082 0.701503 -0.434382
C37   C     C_3   0.216765 0.387068 0.899622 -0.406003
C38   C     C_3   0.264858 0.262205 0.928442 -0.797656
H21   H     H_    0.311471 0.204252 0.878644 0.273409
H22   H     H_    0.344854 0.276303 0.971032 0.252503
H23   H     H_    0.172130 0.211139 0.957371 0.246965
H24   H     H_    0.166048 0.443533 0.948918 0.193405
H25   H     H_    0.132653 0.367860 0.859841 0.233402
C39   C     C_3   0.780236 0.630332 0.103012 -0.408890
C40   C     C_3   0.729980 0.756002 0.076584 -0.797012
H26   H     H_    0.651006 0.742984 0.033313 0.253974
H27   H     H_    0.681478 0.810766 0.127348 0.274829
H28   H     H_    0.822007 0.809789 0.049159 0.246735
H29   H     H_    0.864050 0.648624 0.143111 0.231117
H30   H     H_    0.831797 0.576726 0.052671 0.194357
N5    N     N_R   0.593095 0.087067 0.350775 0.122690
O13   O     O_R   0.605786 0.009754 0.291525 -0.393621
O14   O     O_R   0.610592 0.205961 0.339096 -0.349392
N6    N     N_R   0.405034 0.916612 0.645774 0.117167
O15   O     O_R   0.362570 0.997778 0.699712 -0.382030
O16   O     O_R   0.399871 0.798433 0.661476 -0.362431
C41   C     C_3   0.327445 0.896174 0.383216 -0.332269
C42   C     C_3   0.249492 0.992746 0.340165 -0.797519
H31   H     H_    0.168000 0.040372 0.379993 0.240215
H32   H     H_    0.324994 0.062971 0.313391 0.287628
H33   H     H_    0.194934 0.945294 0.293226 0.243457
H34   H     H_    0.398973 0.842195 0.340677 0.215092
H35   H     H_    0.248877 0.830204 0.411191 0.199017
C43   C     C_3   0.679845 0.101980 0.610205 -0.342891
C44   C     C_3   0.728322 0.005902 0.665848 -0.807183
H36   H     H_    0.639452 0.977689 0.708510 0.297642
H37   H     H_    0.770455 0.921735 0.633833 0.236227
H38   H     H_    0.813314 0.047694 0.698788 0.243084
H39   H     H_    0.774621 0.144697 0.577915 0.197447
H40   H     H_    0.621142 0.176656 0.644640 0.211561
C45   C     C_3   0.215276 0.080743 0.544363 -0.319422
C46   C     C_3   0.109988 0.972982 0.560679 -0.802453
H41   H     H_    0.096473 0.917469 0.506967 0.238626
H42   H     H_    0.144446 0.910805 0.605679 0.314609
H43   H     H_    0.005462 0.011796 0.582177 0.229122
H44   H     H_    0.218993 0.139495 0.597960 0.231064
H45   H     H_    0.177267 0.138968 0.498867 0.193101
C47   C     C_3   0.790843 0.927521 0.458079 -0.376806
C48   C     C_3   0.817026 0.855106 0.381033 -0.700514
H46   H     H_    0.729989 0.786976 0.372492 0.252190
H47   H     H_    0.828366 0.920411 0.331833 0.280377
H48   H     H_    0.918074 0.803639 0.380236 0.223766
H49   H     H_    0.857756 0.013791 0.455526 0.208898
H50   H     H_    0.824143 0.869949 0.505243 0.199115

loop_
_geom_bond_atom_site_label_1
_geom_bond_atom_site_label_2
_geom_bond_distance
_ccdc_geom_bond_type
C28   N1    1.480676 S    
C33   C34   1.530718 S    
C36   H17   1.110848 S    
C20   C26   1.554509 S    
C41   C42   1.524315 S    
C38   H23   1.110321 S    
O7    Cu2   1.958633 S    
C23   C25   1.550969 S    
C34   H11   1.110725 S    
O5    C3    1.309733 A    
C47   H50   1.103022 S    
C35   H19   1.110656 S    
O1    C1    1.297535 A    
C9    C11   1.400583 A    
C14   C16   1.395946 A    
C48   H47   1.107766 S    
C5    C15   1.400857 A    
C39   H29   1.112249 S    
C42   H33   1.110325 S    
C22   N6    1.459294 S    
O4    Cu1   1.975987 S    
C47   C48   1.527377 S    
C20   C43   1.533756 S    
C21   C26   1.537623 S    
N3    O10   1.300220 A    
C14   C39   1.514988 S    
C46   H41   1.107069 S    
C3    C5    1.466001 S    
C4    C6    1.464817 S    
C28   C30   1.521890 S    
N1    C31   1.485798 S    
C42   H32   1.107020 S    
N2    C32   1.486214 S    
C43   H40   1.110994 S    
Cu1   Cu2   2.708599 S    
N5    O14   1.298855 A    
C37   H24   1.109864 S    
C7    C33   1.530867 S    
C28   C32   1.523912 S    
C24   C26   1.550074 S    
C11   C17   1.467531 S    
C36   H18   1.110531 S    
C27   N3    1.453871 S    
C25   C45   1.531448 S    
C33   H14   1.109872 S    
O2    C2    1.297685 A    
O2    Cu2   1.969224 S    
C32   H10   1.107969 S    
C29   H7    1.106180 S    
C6    C16   1.400982 A    
C30   H8    1.106690 S    
C47   H49   1.110885 S    
C43   C44   1.526162 S    
C38   H21   1.111082 S    
C22   C25   1.536848 S    
N4    O12   1.300187 A    
C48   H48   1.109919 S    
C13   C37   1.515068 S    
C41   H34   1.110745 S    
C8    C35   1.530093 S    
C29   C32   1.550941 S    
C30   C31   1.549883 S    
C9    H6    1.079996 S    
C31   H9    1.105189 S    
C37   C38   1.526965 S    
C18   H3    1.085457 S    
C35   C36   1.530685 S    
C27   C29   1.521230 S    
C40   H26   1.109549 S    
C29   N1    1.485351 S    
O6    C4    1.309015 A    
C42   H31   1.107558 S    
N6    O16   1.299020 A    
C43   H39   1.108476 S    
C44   H37   1.107471 S    
O7    C3    1.296985 A    
C46   H43   1.107693 S    
O3    Cu2   1.975987 S    
O8    C4    1.297188 A    
C45   H44   1.110740 S    
Cu1   N1    2.035299 S    
C10   H5    1.079828 S    
C26   C47   1.533812 S    
C40   H27   1.111166 S    
C10   C12   1.400868 A    
C11   C13   1.409799 A    
C12   C14   1.409668 A    
O4    C2    1.294479 A    
O1    Cu1   1.969224 S    
C17   C18   1.341691 D    
C15   H2    1.082813 S    
C5    C7    1.422616 A    
O6    Cu2   1.969322 S    
C19   C21   1.543186 S    
C17   H4    1.085408 S    
C20   C23   1.544284 S    
C37   H25   1.112204 S    
C38   H22   1.109350 S    
N4    O11   1.300168 A    
O3    C1    1.294189 A    
O8    Cu1   1.958631 S    
C27   N2    1.479898 S    
C19   C41   1.532927 S    
C30   N2    1.485181 S    
C34   H13   1.110477 S    
C21   N5    1.461054 S    
C20   C22   1.535845 S    
C19   C24   1.551669 S    
C21   C23   1.537480 S    
C48   H46   1.109454 S    
C22   C24   1.538178 S    
C27   C31   1.522268 S    
Cu2   N2    2.035299 S    
C39   H30   1.109922 S    
C33   H15   1.110600 S    
N6    O15   1.300591 A    
C7    C9    1.399861 A    
C34   H12   1.110726 S    
C28   N4    1.453867 S    
C44   H38   1.110234 S    
C8    C10   1.399390 A    
C35   H20   1.110057 S    
C13   C15   1.395981 A    
N3    O9    1.299897 A    
C19   C25   1.551651 S    
C46   H42   1.108283 S    
C45   H45   1.102085 S    
C36   H16   1.110694 S    
O5    Cu1   1.969322 S    
C40   H28   1.110315 S    
C16   H1    1.082913 S    
C6    C8    1.421420 A    
C39   C40   1.526957 S    
C1    C24   1.458802 S    
C44   H36   1.107573 S    
C2    C23   1.460530 S    
C12   C18   1.467109 S    
N5    O13   1.300232 A    
C45   C46   1.525814 S    
C41   H35   1.102568 S    
