data_mof_unit_30857.cif
_audit_creation_date              2012-12-11T15:23:53-0500
_audit_creation_method            fapswitch 2.2
_symmetry_space_group_name_H-M    P1
_symmetry_Int_Tables_number       1
_space_group_crystal_system       triclinic
_cell_length_a                    17.478814
_cell_length_b                    24.530102
_cell_length_c                    15.154677
_cell_angle_alpha                 89.792404
_cell_angle_beta                  126.386934
_cell_angle_gamma                 89.448689
_cell_volume                      5230.22406413

loop_
_atom_site_label
_atom_site_type_symbol
_atom_type_description
_atom_site_fract_x
_atom_site_fract_y
_atom_site_fract_z
_atom_type_partial_charge
C1    C     C_R   0.314677 0.371363 0.908554 -0.113135
C2    C     C_R   0.531384 0.499348 0.708270 0.117535
C3    C     C_3   0.613005 0.192046 0.738247 -0.396887
C4    C     C_3   0.509639 0.180429 0.644814 -0.930800
C5    C     C_3   0.343301 0.147870 0.054473 0.171251
C6    C     C_3   0.387470 0.092805 0.110193 -0.288180
C7    C     C_3   0.414915 0.059509 0.047809 -0.882921
C8    C     C_R   0.974028 0.000301 0.296954 0.113355
C9    C     C_R   0.952110 0.000295 0.645990 0.112062
C10   C     C_R   0.187113 0.500559 0.645832 0.152064
C11   C     C_R   0.823608 0.499740 0.273495 0.129990
C12   C     C_R   0.687225 0.000768 0.646072 0.147258
C13   C     C_R   0.323920 0.000178 0.275083 0.126727
C14   C     C_2   0.979905 0.457874 0.365509 -0.053447
C15   C     C_2   0.077138 0.462066 0.464645 -0.102443
C16   C     C_2   0.480410 0.958880 0.365911 -0.054636
C17   C     C_R   0.672103 0.358307 0.092839 -0.133657
C18   C     C_2   0.577785 0.963064 0.464395 -0.057043
C19   C     C_2   0.924069 0.502101 0.321571 -0.190647
C20   C     C_2   0.100328 0.502351 0.535873 -0.187782
C21   C     C_2   0.424267 0.002948 0.322686 -0.218353
C22   C     C_2   0.600602 0.002851 0.536293 -0.170352
C23   C     C_R   0.276462 0.763595 0.889215 0.608061
C24   C     C_R   0.771872 0.722079 0.066924 0.580870
C25   C     C_R   0.774131 0.262107 0.889792 0.605146
C26   C     C_R   0.270676 0.223864 0.060163 0.547028
C27   C     C_R   0.721383 0.299950 0.901493 -0.378177
C28   C     C_R   0.817373 0.868335 0.906960 -0.095377
C29   C     C_R   0.317318 0.268952 0.063111 -0.352756
C30   C     C_R   0.228528 0.805117 0.900497 -0.376845
C31   C     C_R   0.818680 0.763446 0.058003 -0.360792
C32   C     C_R   0.741525 0.309179 0.004823 -0.025971
C33   C     C_R   0.265948 0.315480 0.003207 -0.069025
C34   C     C_R   0.249393 0.816052 0.003585 -0.031796
C35   C     C_R   0.769285 0.810208 0.998611 -0.065852
C36   C     C_R   0.834484 0.295375 0.099922 0.158293
C37   C     C_R   0.166742 0.318888 0.941920 0.175187
C38   C     C_R   0.340805 0.799993 0.098803 0.151030
C39   C     C_R   0.176333 0.861344 0.091710 -0.137706
C40   C     C_R   0.671044 0.816676 0.942552 0.187581
C41   C     C_R   0.399996 0.769307 0.084058 0.152180
C42   C     C_R   0.621102 0.773099 0.943697 0.146901
C43   C     C_R   0.896411 0.268186 0.084825 0.144074
C44   C     C_R   0.118436 0.273419 0.940421 0.156165
C45   C     C_R   0.440097 0.651597 0.085867 -0.116821
C46   C     C_R   0.562961 0.648857 0.909332 -0.093634
C47   C     C_R   0.940944 0.151816 0.085851 -0.099818
C48   C     C_R   0.064225 0.147761 0.907813 -0.158008
C49   C     C_R   0.358734 0.741651 0.985641 -0.086775
C50   C     C_R   0.382565 0.683798 0.991638 0.104333
C51   C     C_R   0.672534 0.726031 0.004920 -0.170881
C52   C     C_R   0.857953 0.241498 0.985981 -0.074952
C53   C     C_R   0.171640 0.226397 0.000246 -0.180550
C54   C     C_R   0.621614 0.525175 0.636880 0.171478
C55   C     C_R   0.626699 0.524968 0.548180 0.167470
C56   C     C_R   0.874378 0.024253 0.452265 0.164287
C57   C     C_R   0.880452 0.024566 0.364460 0.181805
C58   C     C_R   0.554664 0.498472 0.451969 0.007987
C59   C     C_R   0.545009 0.498733 0.624896 -0.001046
C60   C     C_R   0.961056 0.000362 0.380432 -0.002026
C61   C     C_R   0.625280 0.678625 0.001158 0.172701
C62   C     C_R   0.949319 0.999811 0.551254 0.007422
C63   C     C_R   0.481138 0.471393 0.443382 -0.179606
C64   C     C_R   0.476064 0.471702 0.529435 -0.196054
C65   C     C_R   0.033448 0.975667 0.478971 -0.194808
C66   C     C_R   0.027375 0.975220 0.564266 -0.191040
C67   C     C_R   0.541661 0.453856 0.298608 -0.134776
C68   C     C_R   0.507166 0.453657 0.739268 -0.130113
C69   C     C_R   0.998654 0.954247 0.266884 -0.121161
C70   C     C_R   0.959935 0.954272 0.702448 -0.149380
C71   C     C_R   0.237912 0.545813 0.704577 -0.144477
C72   C     C_R   0.883361 0.183978 0.991794 0.101983
C73   C     C_R   0.767068 0.545107 0.247470 -0.090319
C74   C     C_R   0.738039 0.045931 0.704815 -0.113995
C75   C     C_R   0.267064 0.045398 0.248172 -0.159018
C76   C     C_R   0.537774 0.545321 0.295929 -0.093037
C77   C     C_R   0.509240 0.545382 0.741307 -0.096131
C78   C     C_R   0.992834 0.046017 0.260396 -0.093297
C79   C     C_R   0.962537 0.045787 0.704250 -0.106976
C80   C     C_R   0.240075 0.454462 0.703315 -0.097360
C81   C     C_R   0.768903 0.454053 0.251766 -0.086144
C82   C     C_R   0.740011 0.954564 0.703269 -0.092708
C83   C     C_R   0.127014 0.177871 0.998694 0.161618
C84   C     C_R   0.269417 0.954345 0.253634 -0.091459
C85   C     C_R   0.353114 0.650941 0.904053 -0.120365
C86   C     C_R   0.649964 0.649763 0.091964 -0.049120
C87   C     C_R   0.853467 0.151042 0.904155 -0.115110
C88   C     C_R   0.151550 0.149602 0.090691 -0.046577
C89   C     C_R   0.405961 0.373483 0.092562 -0.136557
C90   C     C_R   0.582362 0.358765 0.910984 -0.129150
C91   C     C_R   0.910443 0.866944 0.091122 -0.128777
C92   C     C_R   0.089883 0.866008 0.909458 -0.130967
C93   C     C_R   0.319708 0.357575 0.000470 0.161980
C94   C     C_R   0.549487 0.499535 0.355255 0.102949
C95   C     C_R   0.667191 0.338211 0.004585 0.151231
C96   C     C_R   0.824768 0.851249 0.998160 0.163808
C97   C     C_R   0.175378 0.845770 0.003133 0.150090
C98   C     C_3   0.151227 0.738317 0.709104 0.176609
C99   C     C_3   0.113957 0.692667 0.743763 -0.399150
C100  C     C_3   0.009340 0.681690 0.653790 -0.886752
C101  C     C_3   0.891680 0.684347 0.235620 0.151227
C102  C     C_3   0.985311 0.657724 0.270389 -0.225051
C103  C     C_3   0.060222 0.659856 0.394418 -1.047657
C104  C     C_3   0.652093 0.238209 0.706808 0.192156
H1    H     H_    0.259735 0.360998 0.824415 0.120051
H2    H     H_    0.394033 0.266636 0.108934 0.164286
H3    H     H_    0.172019 0.826206 0.827962 0.144753
H4    H     H_    0.894326 0.758786 0.097373 0.156724
H5    H     H_    0.425751 0.451382 0.368385 0.147971
H6    H     H_    0.416550 0.451959 0.520400 0.142912
H7    H     H_    0.095655 0.957550 0.490374 0.147456
H8    H     H_    0.084800 0.956782 0.641633 0.145953
H9    H     H_    0.480555 0.664324 0.170062 0.144245
H10   H     H_    0.524454 0.661859 0.824714 0.123544
H11   H     H_    0.982027 0.164730 0.169928 0.138957
H12   H     H_    0.713536 0.343401 0.175348 0.141871
H13   H     H_    0.026207 0.159708 0.822655 0.133873
H14   H     H_    0.556160 0.412105 0.328046 0.112490
H15   H     H_    0.505943 0.412324 0.714711 0.097491
H16   H     H_    0.005136 0.913323 0.296892 0.099281
H17   H     H_    0.946796 0.912738 0.673727 0.107421
H18   H     H_    0.222132 0.587780 0.676245 0.103346
H19   H     H_    0.788002 0.586958 0.256081 0.101345
H20   H     H_    0.722479 0.087906 0.676568 0.108176
H21   H     H_    0.287960 0.087391 0.256513 0.124516
H22   H     H_    0.546030 0.587434 0.320700 0.129761
H23   H     H_    0.763158 0.858432 0.822312 0.120919
H24   H     H_    0.512130 0.587389 0.721977 0.118939
H25   H     H_    0.989099 0.088230 0.277994 0.125048
H26   H     H_    0.953703 0.088022 0.678751 0.125022
H27   H     H_    0.226371 0.412962 0.674517 0.094059
H28   H     H_    0.793758 0.412576 0.269772 0.120077
H29   H     H_    0.726152 0.913127 0.674135 0.095773
H30   H     H_    0.294969 0.913041 0.273962 0.119432
H31   H     H_    0.320811 0.662820 0.820325 0.168118
H32   H     H_    0.690018 0.664040 0.175428 0.101369
H33   H     H_    0.820749 0.162899 0.820313 0.167124
H34   H     H_    0.218756 0.845442 0.173410 0.140203
H35   H     H_    0.192310 0.164461 0.173795 0.124583
H36   H     H_    0.434759 0.365294 0.177101 0.110859
H37   H     H_    0.546056 0.345654 0.827620 0.086932
H38   H     H_    0.942252 0.853193 0.173812 0.097884
H39   H     H_    0.059266 0.859433 0.824412 0.092265
H40   H     H_    0.950605 0.417476 0.343606 0.164430
H41   H     H_    0.124806 0.427527 0.486715 0.139683
H42   H     H_    0.451204 0.918598 0.344814 0.164410
H43   H     H_    0.625714 0.928742 0.485792 0.141670
H44   H     H_    0.140136 0.725437 0.632114 0.145961
H45   H     H_    0.954731 0.542362 0.338552 0.136510
H46   H     H_    0.108434 0.776359 0.686930 0.096588
H47   H     H_    0.155384 0.654518 0.760558 0.213333
H48   H     H_    0.121597 0.704201 0.819419 0.209689
H49   H     H_    0.965670 0.718988 0.636182 0.262586
H50   H     H_    0.984316 0.648706 0.680941 0.291427
H51   H     H_    0.999603 0.668600 0.577649 0.249118
H52   H     H_    0.869045 0.665699 0.283338 0.111416
H53   H     H_    0.904188 0.728299 0.258442 0.084399
H54   H     H_    0.973072 0.614506 0.244182 0.217558
H55   H     H_    0.012111 0.679207 0.229235 0.199711
H56   H     H_    0.052880 0.536568 0.516802 0.141389
H57   H     H_    0.074887 0.702824 0.422160 0.271584
H58   H     H_    0.127203 0.640268 0.416858 0.284839
H59   H     H_    0.035573 0.637671 0.437141 0.256477
H60   H     H_    0.644020 0.225606 0.631378 0.151691
H61   H     H_    0.608672 0.276113 0.683002 0.099204
H62   H     H_    0.655718 0.154213 0.757292 0.212255
H63   H     H_    0.616964 0.203273 0.811769 0.210219
H64   H     H_    0.464701 0.217438 0.624674 0.264455
H65   H     H_    0.483222 0.147226 0.669835 0.276532
H66   H     H_    0.503522 0.167344 0.570772 0.260546
H67   H     H_    0.454658 0.043327 0.339099 0.144740
H68   H     H_    0.394948 0.170646 0.048529 0.115711
H69   H     H_    0.277637 0.140382 0.970353 0.097274
H70   H     H_    0.451963 0.099403 0.195043 0.224678
H71   H     H_    0.335491 0.069499 0.114353 0.206625
H72   H     H_    0.351194 0.051658 0.963151 0.253524
H73   H     H_    0.446323 0.019777 0.090480 0.285562
H74   H     H_    0.468274 0.081541 0.044243 0.276688
H75   H     H_    0.552950 0.036867 0.517830 0.136820
H76   H     H_    0.662652 0.320063 0.829173 0.148374
I1    I     I_    0.888967 0.304959 0.267626 -0.425294
I2    I     I_    0.743148 0.561175 0.559678 -0.344319
I3    I     I_    0.752794 0.057282 0.435973 -0.393163
I4    I     I_    0.768925 0.058645 0.208416 -0.328897
I5    I     I_    0.093177 0.392926 0.856775 -0.295337
I6    I     I_    0.395904 0.810057 0.266343 -0.443607
I7    I     I_    0.601415 0.892169 0.861151 -0.316494
I8    I     I_    0.552033 0.771156 0.198179 -0.363450
I9    I     I_    0.470534 0.778770 0.855927 -0.322810
I10   I     I_    0.047960 0.273136 0.199747 -0.368085
I11   I     I_    0.967568 0.276241 0.850674 -0.299130
I12   I     I_    0.728806 0.562667 0.788483 -0.303065
N1    N     N_R   0.395440 0.396300 0.944370 -0.050892
N2    N     N_R   0.474910 0.470990 0.794360 -0.046569
N3    N     N_R   0.025090 0.970990 0.205640 -0.044697
N4    N     N_R   0.974910 0.970990 0.794360 -0.044109
N5    N     N_R   0.320240 0.527820 0.794510 -0.045212
N6    N     N_R   0.679760 0.527820 0.205490 -0.046759
N7    N     N_R   0.820240 0.027820 0.794510 -0.045019
N8    N     N_R   0.179760 0.027820 0.205490 -0.045646
N9    N     N_R   0.524580 0.527810 0.205160 -0.047344
N10   N     N_R   0.475420 0.527810 0.794840 -0.050438
N11   N     N_R   0.024580 0.027810 0.205160 -0.049383
N12   N     N_R   0.604560 0.396300 0.055630 -0.048436
N13   N     N_R   0.975420 0.027810 0.794840 -0.047065
N14   N     N_R   0.320750 0.470990 0.794990 -0.046854
N15   N     N_R   0.679250 0.470990 0.205010 -0.048738
N16   N     N_R   0.820750 0.970990 0.794990 -0.045429
N17   N     N_R   0.179250 0.970990 0.205010 -0.049906
N18   N     N_R   0.393580 0.602500 0.942610 -0.053282
N19   N     N_R   0.606420 0.602500 0.057390 -0.054548
N20   N     N_R   0.893580 0.102500 0.942610 -0.050276
N21   N     N_R   0.106420 0.102500 0.057390 -0.061558
N22   N     N_R   0.451750 0.396300 0.057540 -0.048793
N23   N     N_R   0.895440 0.896300 0.944370 -0.051038
N24   N     N_R   0.548250 0.396300 0.942460 -0.042510
N25   N     N_R   0.951750 0.896300 0.057540 -0.046341
N26   N     N_R   0.048250 0.896300 0.942460 -0.045497
N27   N     N_R   0.104560 0.896300 0.055630 -0.049577
N28   N     N_R   0.449890 0.602500 0.055780 -0.048620
N29   N     N_R   0.550110 0.602500 0.944220 -0.051237
N30   N     N_R   0.949890 0.102500 0.055780 -0.045137
N31   N     N_R   0.050110 0.102500 0.944220 -0.050089
N32   N     N_R   0.525090 0.470990 0.205640 -0.043998
Ni1   Ni    Ni4+2 0.435420 0.434250 0.870220 0.217953
Ni2   Ni    Ni4+2 0.564580 0.434250 0.129780 0.233633
Ni3   Ni    Ni4+2 0.935420 0.934250 0.870220 0.224411
Ni4   Ni    Ni4+2 0.064580 0.934250 0.129780 0.226087
Ni5   Ni    Ni4+2 0.563400 0.564580 0.128670 0.240113
Ni6   Ni    Ni4+2 0.436600 0.564580 0.871330 0.225078
Ni7   Ni    Ni4+2 0.063400 0.064580 0.128670 0.229639
Ni8   Ni    Ni4+2 0.936600 0.064580 0.871330 0.231238
O1    O     O_3   0.250239 0.747135 0.786921 -0.650598
O2    O     O_3   0.820656 0.674359 0.122714 -0.647890
O3    O     O_3   0.750474 0.247530 0.787620 -0.647803
O4    O     O_3   0.322172 0.177276 0.117725 -0.663627

loop_
_geom_bond_atom_site_label_1
_geom_bond_atom_site_label_2
_ccdc_geom_bond_type
C3    C104  S    
C100  H49   S    
C80   N14   A    
C63   H5    S    
C101  C102  S    
C12   C74   A    
C30   H3    S    
C76   H22   S    
C87   N20   A    
C71   H18   S    
C74   H20   S    
C51   C61   S    
C85   N18   A    
C102  H54   S    
C90   N24   A    
N6    Ni5   S    
C3    H63   S    
C90   C95   A    
C40   I7    S    
N20   N30   A    
C35   C96   S    
C11   C81   A    
C47   H11   S    
C98   O1    S    
C13   C84   A    
C11   C19   S    
C8    C69   A    
C16   C21   D    
C46   N29   A    
C4    H66   S    
N3    Ni4   S    
C39   C97   A    
C32   C36   A    
N2    Ni1   S    
C39   N27   A    
C78   H25   S    
N30   Ni7   S    
C2    C68   A    
N23   N25   A    
C68   H15   S    
C9    C79   A    
C5    C6    S    
N20   Ni8   S    
C98   C99   S    
C43   C52   A    
C23   C49   A    
N3    N11   A    
C6    H71   S    
C100  H50   S    
N19   N29   A    
C29   C33   A    
C69   N3    A    
C34   C97   S    
N18   N28   A    
C56   C57   A    
C7    H73   S    
C16   H42   S    
C31   H4    S    
N4    N13   A    
C92   H39   S    
C65   H7    S    
C44   I11   S    
C50   C85   A    
C76   C94   A    
C91   C96   A    
C44   C53   A    
C5    H68   S    
C104  O3    S    
C37   I5    S    
C13   C75   A    
C43   I10   S    
C10   C20   S    
C73   H19   S    
C5    O4    S    
N29   Ni6   S    
C67   C94   A    
C17   C95   A    
N8    Ni7   S    
N27   Ni4   S    
N21   Ni7   S    
C28   H23   S    
C42   C51   A    
N10   Ni6   S    
C91   H38   S    
C10   C71   A    
C28   N23   A    
C40   C42   A    
C83   C88   A    
C104  H61   S    
N4    Ni3   S    
C101  H53   S    
C80   H27   S    
C34   C38   A    
C7    H72   S    
C8    C78   A    
C27   H76   S    
N5    N14   A    
C67   N32   A    
C87   H33   S    
C82   H29   S    
C41   C49   A    
C92   C97   A    
C71   N5    A    
C54   C59   A    
C15   C20   D    
C14   H40   S    
C103  H57   S    
C88   N21   A    
C30   C34   A    
C46   C61   A    
C13   C21   S    
C9    C62   S    
C23   C30   A    
N1    N22   A    
C62   C66   A    
C78   N11   A    
C38   C41   A    
C18   H43   S    
C11   C73   A    
C15   H41   S    
C46   H10   S    
C76   N9    A    
C81   H28   S    
C6    H70   S    
C101  H52   S    
C38   I6    S    
C79   H26   S    
C99   H47   S    
C75   N8    A    
C63   C64   A    
C41   I8    S    
N32   Ni2   S    
C75   H21   S    
C91   N25   A    
C17   N12   A    
C1    N1    A    
N7    Ni8   S    
C88   H35   S    
C52   C72   S    
C3    H62   S    
N15   Ni2   S    
C64   H6    S    
C99   C100  S    
C89   H36   S    
C84   H30   S    
C73   N6    A    
N14   Ni1   S    
N18   Ni6   S    
C12   C82   A    
C25   C52   A    
C70   H17   S    
C86   N19   A    
C92   N26   A    
C25   O3    S    
C19   H45   S    
C6    C7    S    
C77   H24   S    
C54   I12   S    
C85   H31   S    
N28   Ni5   S    
C100  H51   S    
C16   C18   S    
N16   Ni3   S    
N17   Ni4   S    
C47   N30   A    
C60   C65   A    
C65   C66   A    
C20   H56   S    
C12   C22   S    
C56   C62   A    
C29   H2    S    
C77   N10   A    
N12   Ni2   S    
C3    C4    S    
C26   C53   A    
N26   Ni3   S    
C72   C87   A    
N31   Ni8   S    
C4    H65   S    
C98   H46   S    
C26   O4    S    
C58   C63   A    
C54   C55   A    
C86   H32   S    
C103  H58   S    
C10   C80   A    
N19   Ni5   S    
N6    N15   A    
C18   C22   D    
C4    H64   S    
C5    H69   S    
C14   C19   D    
C82   N16   A    
N8    N17   A    
C22   H75   S    
C57   C60   A    
C33   C93   S    
C102  H55   S    
C104  H60   S    
C68   N2    A    
C70   N4    A    
C48   H13   S    
C48   N31   A    
C25   C27   A    
C99   H48   S    
N12   N24   A    
C69   H16   S    
C103  H59   S    
N24   Ni1   S    
C48   C83   A    
C81   N15   A    
C28   C96   A    
C37   C44   A    
C35   C40   A    
C58   C94   S    
C24   C31   A    
N1    Ni1   S    
C59   C64   A    
C2    C77   A    
C79   N13   A    
C8    C60   S    
N11   Ni7   S    
N21   N31   A    
C42   I9    S    
C56   I3    S    
N26   N27   A    
C2    C59   S    
C98   H44   S    
C45   C50   A    
C24   C51   A    
N5    Ni6   S    
C53   C83   S    
C31   C35   A    
N9    Ni5   S    
N7    N16   A    
C84   N17   A    
C55   I2    S    
N23   Ni3   S    
C89   C93   A    
C102  C103  S    
N22   Ni2   S    
C67   H14   S    
C33   C37   A    
C47   C72   A    
C39   H34   S    
C90   H37   S    
C24   O2    S    
C61   C86   A    
C27   C32   A    
N25   Ni4   S    
C9    C70   A    
C23   O1    S    
C45   H9    S    
C32   C95   S    
C74   N7    A    
C7    H74   S    
C26   C29   A    
C1    C93   A    
C49   C50   S    
C21   H67   S    
C55   C58   A    
C101  O2    S    
C45   N28   A    
C14   C15   S    
C36   C43   A    
N13   Ni8   S    
C36   I1    S    
N9    N32   A    
C66   H8    S    
C57   I4    S    
C17   H12   S    
C1    H1    S    
C89   N22   A    
N2    N10   A    
