data_mof_unit_59856.cif
_audit_creation_date              2012-12-11T15:29:53-0500
_audit_creation_method            fapswitch 2.2
_symmetry_space_group_name_H-M    P1
_symmetry_Int_Tables_number       1
_space_group_crystal_system       triclinic
_cell_length_a                    8.298613
_cell_length_b                    15.011986
_cell_length_c                    19.027437
_cell_angle_alpha                 96.806744
_cell_angle_beta                  94.340064
_cell_angle_gamma                 98.522589
_cell_volume                      2317.19743907

loop_
_atom_site_label
_atom_site_type_symbol
_atom_type_description
_atom_site_fract_x
_atom_site_fract_y
_atom_site_fract_z
_atom_type_partial_charge
Ba1   Ba    Ba6+2 0.161760 0.544680 0.467770 1.676399
Ba2   Ba    Ba6+2 0.648420 0.455310 0.532170 1.673688
Br1   Br    Br    0.273284 0.833421 0.715398 -0.492226
Br2   Br    Br    0.993608 0.850445 0.825330 -0.495117
Br3   Br    Br    0.794525 0.836310 0.173347 -0.613319
C1    C     C_3   0.368159 0.781265 0.207635 -0.296976
C2    C     C_R   0.092526 0.077274 0.540046 -0.016421
C3    C     C_R   0.962984 0.887317 0.520591 -0.045371
C4    C     C_3   0.926108 0.788643 0.304582 0.382374
C5    C     C_R   0.112467 0.922018 0.560731 -0.032132
C6    C     C_R   0.175970 0.014194 0.569848 -0.108888
C7    C     C_R   0.897330 0.792138 0.511321 0.066107
C8    C     C_R   0.742453 0.764380 0.474189 -0.294869
C9    C     C_R   0.917074 0.203953 0.480687 0.074593
C10   C     C_R   0.852143 0.109047 0.469584 -0.002604
C11   C     C_R   0.939064 0.045902 0.500603 0.008313
C12   C     C_3   0.401351 0.748445 0.279074 0.312569
C13   C     C_R   0.704842 0.074631 0.427439 -0.017507
C14   C     C_R   0.640465 0.982258 0.419334 -0.113149
C15   C     C_R   0.720993 0.919552 0.451747 -0.050962
C16   C     C_3   0.917949 0.870974 0.265660 0.076802
C17   C     C_R   0.875024 0.950636 0.490356 -0.012679
C18   C     C_R   0.651534 0.826797 0.446961 -0.017628
C19   C     C_R   0.068462 0.232435 0.520564 -0.267670
C20   C     C_R   0.614793 0.536710 0.299244 -0.356215
C21   C     C_R   0.458533 0.490124 0.275067 0.022791
C22   C     C_R   0.403325 0.482136 0.201830 0.359171
C23   C     C_3   0.562653 0.729860 0.640232 0.364030
C24   C     C_R   0.508792 0.519870 0.154078 -0.071032
C25   C     C_R   0.667722 0.563223 0.179518 -0.170339
C26   C     C_R   0.720775 0.570253 0.251715 0.014925
C27   C     C_R   0.449667 0.584523 0.040590 -0.058487
C28   C     C_3   0.752957 0.345604 0.316202 0.316724
C29   C     C_R   0.394292 0.572852 0.968152 -0.061153
C30   C     C_R   0.346914 0.485164 0.930754 0.095872
C31   C     C_R   0.361568 0.409743 0.966409 -0.046532
C32   C     C_R   0.417541 0.421449 0.038456 -0.050805
C33   C     C_R   0.457299 0.508753 0.076770 0.092530
C34   C     C_3   0.679565 0.818923 0.666892 0.328130
C35   C     C_R   0.139517 0.419189 0.826396 0.378673
C36   C     C_R   0.096995 0.403057 0.751946 -0.062686
C37   C     C_R   0.352203 0.497403 0.733844 0.085453
C38   C     C_R   0.394083 0.513757 0.807099 -0.186678
C39   C     C_R   0.292783 0.471679 0.853607 -0.052123
C40   C     C_3   0.712618 0.319373 0.236387 -0.390653
C41   C     C_R   0.214788 0.432652 0.706732 -0.324112
C42   C     C_3   0.097761 0.732797 0.704529 0.862740
C43   C     C_3   0.028455 0.732613 0.778640 0.097479
C44   C     C_3   0.255927 0.268556 0.373607 0.319483
C45   C     C_3   0.864824 0.194535 0.677938 0.319213
C46   C     C_3   0.212497 0.166061 0.348360 0.667160
C47   C     C_3   0.028499 0.577599 0.679092 0.180351
C48   C     C_3   0.007021 0.122456 0.254830 0.159354
C49   C     C_3   0.226495 0.024246 0.382630 0.188162
C50   C     C_3   0.583632 0.944481 0.628762 0.208757
C51   C     C_3   0.213850 0.352768 0.166863 0.231667
C52   C     C_3   0.002762 0.302229 0.877167 0.217446
C53   C     C_3   0.894077 0.113464 0.715342 -0.355305
C54   C     C_3   0.384020 0.241792 0.718302 0.351114
C55   C     C_3   0.414505 0.207025 0.789147 -0.319217
C56   C     C_R   0.160012 0.170506 0.547306 0.041670
H1    H     H_    0.323247 0.681700 0.279300 0.094067
H2    H     H_    0.289087 0.149904 0.303841 -0.032007
H3    H     H_    0.531868 0.740017 0.285371 -0.017163
H4    H     H_    0.396973 0.731320 0.164696 0.094376
H5    H     H_    0.633254 0.686512 0.606968 -0.085281
H6    H     H_    0.458085 0.743386 0.605518 0.062111
H7    H     H_    0.767359 0.833978 0.627466 -0.064202
H8    H     H_    0.752109 0.807727 0.714999 0.147195
H9    H     H_    0.445250 0.847984 0.206231 0.152338
H10   H     H_    0.777085 0.170659 0.630050 0.070542
H11   H     H_    0.983608 0.223641 0.660313 -0.079337
H12   H     H_    0.602248 0.266228 0.225636 0.114272
H13   H     H_    0.779075 0.082571 0.735112 0.166323
H14   H     H_    0.938354 0.061944 0.678015 0.094774
H15   H     H_    0.988550 0.135218 0.760969 0.113841
H16   H     H_    0.250859 0.243147 0.708836 -0.082239
H17   H     H_    0.453871 0.311535 0.721598 0.079007
H18   H     H_    0.378025 0.254082 0.832245 0.041663
H19   H     H_    0.546278 0.202873 0.800152 0.153526
H20   H     H_    0.002874 0.810360 0.355947 0.003595
H21   H     H_    0.341463 0.138542 0.788204 0.143105
H22   H     H_    0.184936 0.878630 0.584933 0.146554
H23   H     H_    0.688750 0.379120 0.210725 0.052597
H24   H     H_    0.291596 0.035346 0.601010 0.102097
H25   H     H_    0.528198 0.960256 0.385778 0.098138
H26   H     H_    0.636819 0.118320 0.400096 0.112930
H27   H     H_    0.687068 0.693900 0.470748 0.075830
H28   H     H_    0.120759 0.303675 0.527107 0.047865
H29   H     H_    0.504769 0.560032 0.827921 0.101790
H30   H     H_    0.387628 0.632138 0.941348 0.098435
H31   H     H_    0.485870 0.652525 0.068291 0.108068
H32   H     H_    0.800098 0.761982 0.315896 -0.076781
H33   H     H_    0.332875 0.341653 0.938250 0.051762
H34   H     H_    0.816914 0.292642 0.212701 0.116047
H35   H     H_    0.431852 0.362161 0.064122 0.048048
H36   H     H_    0.751266 0.589278 0.142989 0.133151
H37   H     H_    0.186714 0.416646 0.649801 0.059409
H38   H     H_    0.658083 0.541966 0.354905 0.082223
H39   H     H_    0.857979 0.921360 0.297394 0.028298
H40   H     H_    0.043642 0.902492 0.257571 0.069605
H41   H     H_    0.644640 0.367330 0.339379 -0.003833
H42   H     H_    0.857741 0.402240 0.325837 0.060576
H43   H     H_    0.047306 0.526309 0.635327 0.077754
H44   H     H_    0.906848 0.593776 0.664912 0.095716
H45   H     H_    0.114222 0.705843 0.815465 0.077048
H46   H     H_    0.022391 0.553526 0.731408 -0.027371
H47   H     H_    0.054749 0.180314 0.227008 0.015343
H48   H     H_    0.872352 0.107386 0.241988 0.106009
H49   H     H_    0.058775 0.061027 0.235168 0.038521
H50   H     H_    0.285538 0.005416 0.333610 0.015787
H51   H     H_    0.277533 0.989788 0.425513 0.095232
H52   H     H_    0.093201 0.999007 0.374852 0.058278
H53   H     H_    0.501051 0.904446 0.583810 0.032747
H54   H     H_    0.704125 0.969535 0.610704 0.000660
H55   H     H_    0.530712 0.005363 0.647682 0.107619
H56   H     H_    0.908184 0.687621 0.774088 0.019520
H57   H     H_    0.324464 0.320264 0.176966 -0.023540
H58   H     H_    0.119901 0.328383 0.201434 0.077528
H59   H     H_    0.161808 0.329420 0.111166 0.034789
H60   H     H_    0.084915 0.263823 0.846113 -0.035873
H61   H     H_    0.873809 0.272434 0.859214 0.094553
H62   H     H_    0.024734 0.291849 0.933643 0.052815
H63   H     H_    0.149889 0.294699 0.395838 -0.011296
H64   H     H_    0.359946 0.281281 0.415456 0.055059
H65   H     H_    0.237853 0.789105 0.198296 0.167438
O1    O     O_2   0.165020 0.721890 0.541560 -0.447730
O2    O     O_2   0.765462 0.426584 0.751216 -0.464930
O3    O     O_3   0.797092 0.256124 0.724306 -0.587424
O4    O     O_3   0.893030 0.608480 0.539180 -0.498544
O5    O     O_3   0.426670 0.454500 0.415370 -0.498207
O6    O     O_2   0.638230 0.542350 0.670940 -0.494773
O7    O     O_3   0.505112 0.687759 0.698433 -0.579452
O8    O     O_2   0.491745 0.173520 0.532100 -0.462882
O9    O     O_3   0.437433 0.183880 0.664692 -0.600873
O10   O     O_3   0.389120 0.667500 0.413900 -0.480255
O11   O     O_2   0.322707 0.826272 0.467299 -0.503444
O12   O     O_3   0.299348 0.312161 0.315352 -0.703419
O13   O     O_3   0.976901 0.747076 0.653159 -0.708024
O14   O     O_3   0.364407 0.812491 0.332884 -0.611451
O15   O     O_2   0.172060 0.457600 0.329040 -0.440014
O16   O     O_3   0.964390 0.622060 0.377370 -0.491564
O17   O     O_2   0.051525 0.557936 0.251479 -0.434918
O18   O     O_3   0.156873 0.651447 0.684592 -0.698784
O19   O     O_3   0.041055 0.144357 0.329067 -0.670330
O20   O     O_3   0.256596 0.118675 0.404803 -0.685105
O21   O     O_3   0.599352 0.893487 0.685895 -0.584741
O22   O     O_3   0.241503 0.448680 0.177793 -0.613289
O23   O     O_3   0.997758 0.724674 0.262526 -0.575343
O24   O     O_3   0.024692 0.396605 0.873100 -0.633476
O25   O     O_2   0.645270 0.278050 0.458420 -0.473565
O26   O     O_3   0.917270 0.391510 0.460760 -0.504102
O27   O     O_3   0.421180 0.332490 0.586040 -0.487298
O28   O     O_3   0.793169 0.269612 0.345173 -0.612469
O29   O     O_3   0.383630 0.545490 0.584580 -0.461114
O30   O     O_3   0.845910 0.377930 0.622570 -0.493337
P1    P     P_3+3 0.990700 0.707490 0.561920 1.010049
P2    P     P_3+3 0.340130 0.430100 0.338870 0.987420
P3    P     P_3+3 0.932885 0.616792 0.285210 0.995991
P4    P     P_3+3 0.819590 0.292500 0.438020 1.000524
P5    P     P_3+3 0.878848 0.367195 0.713141 0.979050
P6    P     P_3+3 0.433692 0.784537 0.415348 0.926331
P7    P     P_3+3 0.463356 0.569248 0.674219 1.036168
P8    P     P_3+3 0.375820 0.214565 0.582138 0.966789

loop_
_geom_bond_atom_site_label_1
_geom_bond_atom_site_label_2
_ccdc_geom_bond_type
C48   H49   S    
C20   C26   A    
C10   C13   A    
O26   P4    S    
C55   H18   S    
C19   C56   A    
C36   P5    S    
C22   C24   A    
C56   P8    S    
C28   C40   S    
O9    P8    S    
C14   C15   A    
O16   P3    S    
C38   C39   A    
C14   H25   S    
C11   C17   A    
C19   H28   S    
C54   H16   S    
C53   H15   S    
O10   P6    S    
C2    C6    A    
C25   H36   S    
C4    O23   S    
C21   C22   A    
C47   O18   S    
O4    P1    S    
C31   C32   A    
C32   C33   A    
Ba1   Ba2   S    
C12   H3    S    
C25   C26   A    
C50   H55   S    
C46   O19   S    
O14   P6    S    
C10   C11   A    
C49   H52   S    
C5    H22   S    
C8    C18   A    
Ba1   O26   S    
C40   H12   S    
C29   C30   A    
C37   C41   A    
C9    C19   A    
Ba1   O29   S    
C45   H11   S    
C29   H30   S    
C2    C56   A    
Ba1   O16   S    
C52   H61   S    
C55   H21   S    
C20   H38   S    
C1    H4    S    
C43   H45   S    
C30   C31   A    
C47   H46   S    
C22   O22   S    
C44   C46   S    
C24   C33   S    
Ba2   O6    S    
C36   C41   A    
C27   C33   A    
C7    P1    S    
Br1   C42   S    
Ba1   O10   S    
O1    P1    D    
C49   O20   S    
C18   P6    S    
C16   H40   S    
C41   H37   S    
C54   C55   S    
C44   O12   S    
C51   H59   S    
O7    P7    S    
C54   H17   S    
C53   H14   S    
Ba2   O26   S    
C38   H29   S    
O27   P8    S    
C35   O24   S    
C28   H41   S    
C45   C53   S    
C23   H6    S    
C46   H2    S    
C1    H65   S    
Ba1   O4    S    
C16   H39   S    
C28   O28   S    
C13   C14   A    
C46   O20   S    
O29   P7    S    
C20   C21   A    
C44   H63   S    
C42   O18   S    
C23   O7    S    
C32   H35   S    
C9    P4    S    
C27   C29   A    
C51   O22   S    
O5    P2    S    
C23   H5    S    
C45   H10   S    
C34   H7    S    
O28   P4    S    
C24   C25   A    
C45   O3    S    
C12   H1    S    
C52   H62   S    
O12   P2    S    
C50   O21   S    
C42   C43   S    
C15   C18   A    
C3    C7    A    
C52   O24   S    
C48   O19   S    
Ba2   O5    S    
C34   H8    S    
C49   H51   S    
Ba2   O29   S    
C30   C39   S    
O23   P3    S    
C3    C17   A    
Ba2   P4    S    
C35   C36   A    
C15   C17   A    
C47   H44   S    
Ba2   O27   S    
C47   H43   S    
C51   H58   S    
C40   H23   S    
C37   C38   A    
C34   O21   S    
C40   H34   S    
C4    H32   S    
C53   H13   S    
Br2   C43   S    
C48   H48   S    
Ba2   O25   S    
C1    H9    S    
C1    C12   S    
Ba1   P2    S    
Ba2   O30   S    
C55   H19   S    
C28   H42   S    
C51   H57   S    
C2    C11   A    
Ba1   O1    S    
Ba1   O5    S    
O30   P5    S    
O17   P3    D    
C43   H56   S    
C50   H53   S    
C44   H64   S    
C13   H26   S    
C23   C34   S    
O25   P4    D    
Ba1   P1    S    
O6    P7    D    
C37   P7    S    
C48   H47   S    
C4    C16   S    
O11   P6    D    
C50   H54   S    
C6    H24   S    
O3    P5    S    
C8    H27   S    
C54   O9    S    
O2    P5    D    
Ba2   O4    S    
O8    P8    D    
C49   H50   S    
C21   P2    S    
C12   O14   S    
Ba1   O15   S    
C5    C6    A    
C27   H31   S    
C52   H60   S    
C31   H33   S    
O15   P2    D    
C35   C39   A    
Br3   C16   S    
C7    C8    A    
O13   P1    S    
C3    C5    A    
C42   O13   S    
C9    C10   A    
C26   P3    S    
C4    H20   S    
