data_mof_unit_50420.cif
_audit_creation_date              2012-12-10T18:09:50-0500
_audit_creation_method            fapswitch 2.2
_symmetry_space_group_name_H-M    P1
_symmetry_Int_Tables_number       1
_space_group_crystal_system       triclinic
_cell_length_a                    10.80234
_cell_length_b                    12.556804
_cell_length_c                    13.150308
_cell_angle_alpha                 83.082109
_cell_angle_beta                  88.772658
_cell_angle_gamma                 102.044838
_cell_volume                      1729.78333643

loop_
_atom_site_label
_atom_site_type_symbol
_atom_type_description
_atom_site_fract_x
_atom_site_fract_y
_atom_site_fract_z
_atom_type_partial_charge
C1    C     C_R   0.479147 0.439505 0.691939 0.876375
C2    C     C_R   0.443000 0.447109 0.977001 0.001205
C3    C     C_R   0.426962 0.475121 0.871906 0.030631
C4    C     C_R   0.740800 0.498035 0.504769 1.017447
C5    C     C_R   0.472041 0.534462 0.038331 0.045719
C6    C     C_R   0.456460 0.641553 0.000884 0.048978
C7    C     C_R   0.404205 0.656866 0.905835 -0.275825
C8    C     C_R   0.386423 0.574633 0.842635 0.233359
C9    C     C_R   0.522843 0.519044 0.133554 -0.323430
C10   C     C_R   0.542838 0.710191 0.156305 0.174471
C11   C     C_R   0.451687 0.402600 0.802406 -0.164501
C12   C     C_3   0.118279 0.495336 0.504695 -0.223622
C13   C     C_R   0.311492 0.083472 0.357148 0.129497
C14   C     C_R   0.645422 0.801722 0.631921 0.705020
C15   C     C_R   0.684652 0.911704 0.648927 -0.373457
C16   C     C_R   0.524395 0.561375 0.308468 0.885926
C17   C     C_R   0.633194 0.992007 0.594646 -0.276286
C18   C     C_R   0.542897 0.965275 0.521203 0.042165
C19   C     C_R   0.512942 0.854988 0.500545 0.089602
C20   C     C_R   0.479056 0.043125 0.469936 -0.038791
C21   C     C_R   0.384260 0.009274 0.400122 0.118697
C22   C     C_R   0.363000 0.901670 0.376385 -0.249962
C23   C     C_3   0.076296 0.512995 0.391866 0.247795
C24   C     C_R   0.426355 0.826634 0.425613 -0.127789
C25   C     C_R   0.503109 0.153321 0.487849 -0.057504
C26   C     C_R   0.338601 0.190572 0.381887 -0.031756
C27   C     C_R   0.257169 0.498766 0.502124 0.938692
C28   C     C_3   0.893810 0.383978 0.565891 0.320636
C29   C     C_3   0.038327 0.379062 0.562892 0.189230
C30   C     C_3   0.929348 0.510097 0.391437 0.786320
C31   C     C_3   0.948289 0.592123 0.563497 -0.118028
C32   C     C_3   0.876796 0.495716 0.507213 -0.250004
C33   C     C_3   0.158697 0.779247 0.581915 -0.293627
C34   C     C_3   0.090504 0.592784 0.561197 0.373225
C35   C     C_3   0.869760 0.621891 0.245488 -0.183456
C36   C     C_3   0.219664 0.606781 0.256505 -0.291679
C37   C     C_3   0.609615 0.804908 0.209609 -0.898409
C38   C     C_3   0.479679 0.845539 0.016283 -0.972168
C39   C     C_3   0.375134 0.286945 0.121611 -0.935657
C40   C     C_3   0.448483 0.141074 0.982274 -0.936790
C41   C     C_3   0.769603 0.266897 0.700598 -0.366004
C42   C     C_3   0.303597 0.590693 0.755655 -0.867239
C43   C     C_3   0.203623 0.049966 0.288733 -0.959064
C44   C     C_3   0.707046 0.732309 0.790873 -0.391343
C45   C     C_R   0.493753 0.730685 0.058707 0.205103
C46   C     C_3   0.084914 0.353980 0.672978 -0.759088
C47   C     C_3   0.049156 0.275692 0.510036 -0.899884
C48   C     C_3   0.907061 0.391018 0.255706 -0.413651
C49   C     C_3   0.899215 0.594251 0.675166 -0.774095
C50   C     C_R   0.537314 0.600000 0.197965 -0.163658
C51   C     C_R   0.463591 0.296364 0.840619 -0.262548
C52   C     C_R   0.446606 0.259335 0.945454 0.257247
C53   C     C_R   0.429596 0.333510 0.014640 0.190436
H1    H     H_    0.839446 0.318704 0.523409 0.144743
H2    H     H_    0.401456 0.745878 0.405258 0.252528
H3    H     H_    0.098947 0.444534 0.354428 0.059543
H4    H     H_    0.934472 0.669797 0.519409 0.248516
H5    H     H_    0.120413 0.576330 0.639190 0.094080
H6    H     H_    0.154478 0.748533 0.665033 0.125858
H7    H     H_    0.078068 0.819513 0.564461 0.169730
H8    H     H_    0.246314 0.843557 0.567724 0.193654
H9    H     H_    0.782898 0.559599 0.236165 0.175816
H10   H     H_    0.948183 0.619640 0.190830 0.151803
H11   H     H_    0.845497 0.703115 0.225777 0.161762
H12   H     H_    0.377116 0.733208 0.878604 0.167533
H13   H     H_    0.160690 0.589399 0.190178 0.143165
H14   H     H_    0.275986 0.542851 0.273451 0.145967
H15   H     H_    0.286833 0.686333 0.234241 0.189263
H16   H     H_    0.666564 0.779546 0.273428 0.261809
H17   H     H_    0.679167 0.862564 0.154739 0.234215
H18   H     H_    0.540123 0.849232 0.237834 0.247447
H19   H     H_    0.378435 0.845019 0.002957 0.237816
H20   H     H_    0.509746 0.908427 0.067945 0.262504
H21   H     H_    0.536642 0.873170 0.943030 0.236470
H22   H     H_    0.447042 0.254311 0.167741 0.256169
H23   H     H_    0.547497 0.442012 0.161026 0.202789
H24   H     H_    0.338468 0.347765 0.161547 0.243370
H25   H     H_    0.291714 0.219623 0.116823 0.249093
H26   H     H_    0.472417 0.097053 0.918644 0.235268
H27   H     H_    0.520798 0.137350 0.040592 0.246749
H28   H     H_    0.354169 0.096988 0.016391 0.246985
H29   H     H_    0.818070 0.201342 0.682051 0.152405
H30   H     H_    0.675739 0.258261 0.666791 0.175728
H31   H     H_    0.753617 0.257178 0.785107 0.201504
H32   H     H_    0.350053 0.662547 0.700292 0.268728
H33   H     H_    0.279912 0.516741 0.717108 0.214586
H34   H     H_    0.482791 0.240870 0.788181 0.164187
H35   H     H_    0.213363 0.606059 0.786704 0.199355
H36   H     H_    0.240105 0.025164 0.217601 0.245555
H37   H     H_    0.132552 0.980292 0.329690 0.266476
H38   H     H_    0.154510 0.118088 0.266571 0.235551
H39   H     H_    0.633149 0.769924 0.823408 0.173150
H40   H     H_    0.802771 0.782544 0.800010 0.159450
H41   H     H_    0.700595 0.650753 0.836260 0.208638
H42   H     H_    0.034323 0.271940 0.710303 0.248155
H43   H     H_    0.186864 0.351295 0.670569 0.209807
H44   H     H_    0.068771 0.413436 0.724656 0.226764
H45   H     H_    0.285051 0.249817 0.350821 0.145311
H46   H     H_    0.026350 0.282839 0.428646 0.219916
H47   H     H_    0.141890 0.252097 0.517962 0.279942
H48   H     H_    0.980257 0.202441 0.547905 0.223611
H49   H     H_    0.940349 0.313479 0.273576 0.179407
H50   H     H_    0.984897 0.454076 0.215551 0.149994
H51   H     H_    0.830223 0.375352 0.201299 0.202957
H52   H     H_    0.922371 0.679590 0.694178 0.226309
H53   H     H_    0.795810 0.562560 0.686570 0.312329
H54   H     H_    0.943341 0.544206 0.733135 0.236905
H55   H     H_    0.294531 0.873000 0.321552 0.203138
H56   H     H_    0.576094 0.187383 0.535579 0.126283
H57   H     H_    0.664674 0.073710 0.613357 0.146453
H58   H     H_    0.753934 0.935864 0.704615 0.155119
N1    N     N_R   0.433240 0.222190 0.444680 -0.122490
N2    N     N_R   0.566070 0.776970 0.554790 -0.175275
O1    O     O_R   0.468120 0.366740 0.627160 -0.638936
O2    O     O_3   0.908622 0.615023 0.347233 -0.602968
O3    O     O_3   0.144395 0.616755 0.342438 -0.524621
O4    O     O_3   0.843120 0.372593 0.668531 -0.600857
O5    O     O_3   0.690296 0.717423 0.686767 -0.591226
O6    O     O_3   0.855916 0.419481 0.346291 -0.652894
O7    O     O_R   0.510770 0.544830 0.662520 -0.560675
O8    O     O_R   0.663880 0.410950 0.482330 -0.606253
O9    O     O_R   0.706530 0.589040 0.517700 -0.589383
O10   O     O_R   0.489230 0.455170 0.337480 -0.611547
O11   O     O_R   0.531880 0.633260 0.372840 -0.638088
O12   O     O_R   0.293470 0.410960 0.482300 -0.645387
O13   O     O_R   0.336120 0.589050 0.517670 -0.595310
O14   O     O_3   0.161088 0.697479 0.516455 -0.522353
Zn1   Zn    Zn3+2 0.471520 0.381090 0.476390 0.932380
Zn2   Zn    Zn3+2 0.528480 0.618910 0.523610 0.975059

loop_
_geom_bond_atom_site_label_1
_geom_bond_atom_site_label_2
_ccdc_geom_bond_type
C49   H53   S    
C47   H48   S    
C6    C45   A    
C37   H16   S    
C12   C29   S    
C27   O12   A    
C1    C11   S    
C17   H57   S    
C36   H14   S    
C7    C8    A    
C49   H54   S    
C24   H2    S    
C12   C23   S    
C43   H36   S    
N2    Zn2   S    
C29   C47   S    
C10   C37   S    
C39   H24   S    
C28   C29   S    
C16   O10   A    
C16   C50   S    
C28   O4    S    
C5    C6    A    
C27   O13   A    
C36   H13   S    
C20   C25   A    
C19   N2    A    
C41   H30   S    
C33   O14   S    
C47   H46   S    
C18   C19   A    
C38   C45   S    
C44   H40   S    
C25   N1    A    
C23   O3    S    
C46   H42   S    
C34   O14   S    
C14   O5    S    
O11   Zn2   S    
O12   Zn1   S    
C40   H27   S    
C35   O2    S    
C35   H11   S    
C42   H33   S    
C9    H23   S    
C39   H22   S    
O9    Zn2   S    
C44   H39   S    
C25   H56   S    
C33   H6    S    
C37   H17   S    
C31   C49   S    
C48   O6    S    
C30   O2    S    
C38   H19   S    
C40   H26   S    
C43   H37   S    
C12   C27   S    
C4    O9    A    
C51   C52   A    
C23   C30   S    
C15   H58   S    
C28   C32   S    
C44   H41   S    
O8    Zn1   S    
C3    C8    A    
C51   H34   S    
C28   H1    S    
C49   H52   S    
O13   Zn2   S    
C40   C52   S    
C48   H50   S    
C43   H38   S    
C47   H47   S    
O7    Zn2   S    
C1    O7    A    
C39   H25   S    
C5    C9    A    
C7    H12   S    
O1    Zn1   S    
C31   C32   S    
C44   O5    S    
C48   H49   S    
C10   C45   A    
C17   C18   A    
C31   C34   S    
C13   C21   A    
C42   H32   S    
C23   H3    S    
C4    C32   S    
C26   H45   S    
C46   H44   S    
C33   H7    S    
C37   H18   S    
C22   C24   A    
C13   C26   A    
C2    C5    A    
C42   H35   S    
C1    O1    A    
C12   C34   S    
C10   C50   A    
C26   N1    A    
C13   C43   S    
C52   C53   A    
C36   O3    S    
C38   H21   S    
C15   C17   A    
C40   H28   S    
C9    C50   A    
C8    C42   S    
C2    C53   A    
C36   H15   S    
C6    C7    A    
C14   N2    A    
C29   C46   S    
C31   H4    S    
C2    C3    A    
C16   O11   A    
C30   C32   S    
C41   H31   S    
O10   Zn1   S    
C39   C53   S    
C22   H55   S    
C41   H29   S    
C4    O8    A    
C19   C24   A    
C35   H9    S    
C18   C20   A    
C11   C51   A    
N1    Zn1   S    
C3    C11   A    
C46   H43   S    
C20   C21   A    
C33   H8    S    
C30   O6    S    
C34   H5    S    
C14   C15   A    
C35   H10   S    
C41   O4    S    
C21   C22   A    
C38   H20   S    
C48   H51   S    
