data_mof_unit_17373.cif
_audit_creation_date              2012-12-10T19:09:01-0500
_audit_creation_method            fapswitch 2.2
_symmetry_space_group_name_H-M    P1
_symmetry_Int_Tables_number       1
_space_group_crystal_system       triclinic
_cell_length_a                    17.71272
_cell_length_b                    10.842658
_cell_length_c                    9.530078
_cell_angle_alpha                 89.567056
_cell_angle_beta                  89.96158
_cell_angle_gamma                 89.566861
_cell_volume                      1830.17484444

loop_
_atom_site_label
_atom_site_type_symbol
_atom_type_description
_atom_site_fract_x
_atom_site_fract_y
_atom_site_fract_z
_atom_type_partial_charge
C1    C     C_R   0.499299 0.262175 0.500186 0.805554
C2    C     C_R   0.885477 0.508127 0.499130 0.147329
C3    C     C_1   0.966094 0.507756 0.498824 -0.064050
C4    C     C_1   0.033777 0.506653 0.498319 -0.012483
C5    C     C_R   0.153349 0.484574 0.623134 -0.235660
C6    C     C_R   0.232004 0.482919 0.624412 -0.200195
C7    C     C_R   0.272536 0.501871 0.499483 -0.097026
C8    C     C_R   0.233157 0.522857 0.373513 -0.267462
C9    C     C_R   0.154295 0.521988 0.371202 0.486386
C10   C     C_R   0.114500 0.504480 0.497279 0.039638
C11   C     C_R   0.481211 0.062289 0.622497 0.041523
C12   C     C_R   0.355512 0.500557 0.500033 0.810411
C13   C     C_R   0.492853 0.128996 0.498746 -0.063891
C14   C     C_R   0.493074 0.065104 0.370600 -0.208105
C15   C     C_R   0.492416 0.936497 0.370077 -0.221076
C16   C     C_R   0.491555 0.870574 0.497697 -0.059312
C17   C     C_R   0.480484 0.935540 0.621995 0.043451
C18   C     C_3   0.517674 0.925632 0.762441 0.320098
C19   C     C_3   0.520430 0.065785 0.761011 -0.508637
C20   C     C_R   0.564053 0.472477 0.074026 0.250995
C21   C     C_R   0.439188 0.543450 0.074068 -0.089618
C22   C     C_R   0.439128 0.543201 0.925237 -0.102794
C23   C     C_R   0.498663 0.737633 0.499454 0.826545
C24   C     C_R   0.564182 0.472915 0.926607 0.231416
C25   C     C_3   0.607219 0.354567 0.922072 -0.503793
C26   C     C_3   0.606894 0.353884 0.081233 -0.489752
C27   C     C_R   0.644510 0.501189 0.499889 0.799589
C28   C     C_R   0.846323 0.507282 0.626460 -0.157522
C29   C     C_R   0.767644 0.505652 0.626878 -0.194521
C30   C     C_R   0.727520 0.504299 0.499652 -0.027555
C31   C     C_R   0.767510 0.506651 0.372147 -0.197158
C32   C     C_R   0.846186 0.508276 0.372051 -0.153038
Cu1   Cu    Cu3+1 0.500000 0.499980 0.640670 0.939018
Cu2   Cu    Cu3+1 0.500000 0.500020 0.359330 0.930478
H1    H     H_    0.876586 0.507585 0.725246 0.127210
H2    H     H_    0.496418 0.889426 0.270491 0.165385
H3    H     H_    0.478407 0.887286 0.843160 0.052708
H4    H     H_    0.484725 0.108155 0.843905 0.155957
H5    H     H_    0.578710 0.102392 0.751810 0.214724
H6    H     H_    0.389566 0.575702 0.129086 0.139044
H7    H     H_    0.389459 0.575242 0.869741 0.141361
H8    H     H_    0.664479 0.365726 0.876399 0.187657
H9    H     H_    0.573321 0.277414 0.127309 0.209785
H10   H     H_    0.738400 0.505506 0.726623 0.136854
H11   H     H_    0.664018 0.365207 0.127115 0.187534
H12   H     H_    0.738161 0.507303 0.272566 0.141823
H13   H     H_    0.260967 0.466831 0.723009 0.158583
H14   H     H_    0.263384 0.540726 0.276781 0.151605
H15   H     H_    0.497388 0.113583 0.271190 0.154760
N1    N     N_R   0.500470 0.500930 0.147930 -0.184182
N2    N     N_R   0.500480 0.500890 0.852020 -0.185553
O1    O     O_R   0.500000 0.319640 0.618810 -0.572093
O2    O     O_R   0.500010 0.319680 0.381230 -0.584891
O3    O     O_R   0.391250 0.499990 0.618840 -0.590831
O4    O     O_R   0.391260 0.500020 0.381250 -0.589171
O5    O     O_R   0.499990 0.680320 0.618770 -0.573775
O6    O     O_R   0.500000 0.680360 0.381190 -0.596453
O7    O     O_R   0.608740 0.499980 0.618750 -0.584029
O8    O     O_R   0.608750 0.500010 0.381160 -0.582660
O9    O     O_3   0.590927 0.872704 0.753137 -0.582474
C33   C     C_3   0.606458 0.797279 0.871564 0.109656
H16   H     H_    0.654683 0.735856 0.844260 0.160432
H17   H     H_    0.558478 0.735582 0.897726 0.131941
C34   C     C_3   0.628607 0.874693 0.999000 -0.406105
H18   H     H_    0.678355 0.932049 0.971970 0.236384
H19   H     H_    0.581244 0.937187 0.028290 0.208270
C35   C     C_3   0.647807 0.792528 0.125005 -0.898272
H20   H     H_    0.598301 0.735836 0.154825 0.267674
H21   H     H_    0.663324 0.850752 0.215738 0.266716
H22   H     H_    0.696145 0.730586 0.100048 0.248153
H23   H     H_    0.573395 0.279626 0.876734 0.214726
H24   H     H_    0.876349 0.509345 0.273072 0.128688
H25   H     H_    0.122740 0.470730 0.720345 0.162010
O10   O     O_3   0.116508 0.547464 0.247204 -0.617044
C36   C     C_3   0.099634 0.436043 0.177674 0.057994
H26   H     H_    0.043257 0.447781 0.128063 0.166029
H27   H     H_    0.095175 0.354344 0.249388 0.123495
C37   C     C_3   0.157944 0.410892 0.062303 -0.365175
H28   H     H_    0.162187 0.492998 0.992255 0.225359
H29   H     H_    0.214150 0.393264 0.110245 0.210798
C38   C     C_3   0.136338 0.299169 0.975034 -0.921855
H30   H     H_    0.133161 0.215462 0.042641 0.262547
H31   H     H_    0.179665 0.283499 0.892661 0.257528
H32   H     H_    0.080887 0.315031 0.923311 0.252389

loop_
_geom_bond_atom_site_label_1
_geom_bond_atom_site_label_2
_ccdc_geom_bond_type
Cu1   O7    S    
C38   H30   S    
C7    C8    A    
C32   H24   S    
Cu1   O1    S    
C11   C19   S    
C28   C29   A    
C18   H3    S    
C5    C6    A    
C37   H29   S    
C22   H7    S    
C15   C16   A    
C2    C32   A    
C18   C19   S    
C33   H17   S    
C1    O2    A    
C20   N1    A    
C26   H11   S    
C20   C24   A    
C28   H1    S    
C8    C9    A    
C31   H12   S    
Cu2   O6    S    
C25   H23   S    
C9    C10   A    
Cu1   O5    S    
Cu2   O4    S    
C13   C14   A    
C27   C30   S    
C36   C37   S    
C21   N1    A    
C38   H31   S    
C26   H9    S    
Cu1   Cu2   S    
C7    C12   S    
Cu2   N1    S    
O10   C36   S    
C35   H20   S    
C34   C35   S    
C23   O5    A    
C24   C25   S    
C6    H13   S    
C37   H28   S    
C16   C17   A    
C25   C26   S    
O9    C33   S    
C35   H21   S    
C34   H19   S    
C33   C34   S    
C36   H26   S    
C8    H14   S    
C29   C30   A    
C19   H4    S    
C31   C32   A    
C17   C18   S    
C36   H27   S    
C19   H5    S    
C18   O9    S    
C16   C23   S    
C29   H10   S    
Cu2   O8    S    
C1    C13   S    
C9    O10   S    
C4    C10   S    
C3    C4    T    
C15   H2    S    
C38   H32   S    
Cu1   O3    S    
C23   O6    A    
C11   C17   A    
C27   O7    A    
C25   H8    S    
C6    C7    A    
Cu1   N2    S    
C35   H22   S    
C34   H18   S    
C2    C3    S    
C5    C10   A    
C27   O8    A    
C11   C13   A    
C37   C38   S    
C30   C31   A    
C21   H6    S    
C20   C26   S    
C24   N2    A    
C5    H25   S    
C33   H16   S    
C1    O1    A    
C12   O4    A    
C14   H15   S    
Cu2   O2    S    
C14   C15   A    
C2    C28   A    
C21   C22   A    
C12   O3    A    
C22   N2    A    
