data_mof_unit_31871.cif
_audit_creation_date              2012-12-10T17:11:28-0500
_audit_creation_method            fapswitch 2.2
_symmetry_space_group_name_H-M    P1
_symmetry_Int_Tables_number       1
_space_group_crystal_system       triclinic
_cell_length_a                    15.089735
_cell_length_b                    12.993025
_cell_length_c                    11.662683
_cell_angle_alpha                 100.497305
_cell_angle_beta                  93.783402
_cell_angle_gamma                 90.148899
_cell_volume                      2243.18203006

loop_
_atom_site_label
_atom_site_type_symbol
_atom_type_description
_atom_site_fract_x
_atom_site_fract_y
_atom_site_fract_z
_atom_type_partial_charge
C1    C     C_R   0.499939 0.298825 0.477818 0.825519
C2    C     C_R   0.500059 0.701175 0.522182 0.825478
C3    C     C_R   0.052289 0.438022 0.688828 0.513149
C4    C     C_R   0.947716 0.562087 0.311233 0.513119
C5    C     C_R   0.497802 0.815099 0.536204 -0.141945
C6    C     C_R   0.502190 0.184901 0.463794 -0.141929
C7    C     C_R   0.532331 0.013439 0.352603 -0.289359
C8    C     C_R   0.467654 0.986560 0.647392 -0.289337
C9    C     C_R   0.525452 0.121739 0.358357 0.490146
C10   C     C_R   0.474541 0.878262 0.641640 0.490132
C11   C     C_R   0.481999 0.139156 0.558820 -0.331184
C12   C     C_R   0.517987 0.860844 0.441174 -0.331186
C13   C     C_R   0.487219 0.031587 0.551807 0.110842
C14   C     C_R   0.512764 0.968412 0.448186 0.110853
C15   C     C_R   0.417123 0.401347 0.019739 -0.399104
C16   C     C_R   0.582879 0.598651 0.980261 -0.399093
C17   C     C_R   0.422852 0.411961 0.143479 0.710636
C18   C     C_R   0.577147 0.588040 0.856521 0.710612
C19   C     C_R   0.535559 0.542628 0.157803 -0.014096
C20   C     C_R   0.464443 0.457370 0.842197 -0.014060
C21   C     C_R   0.529919 0.535820 0.034866 0.003248
C22   C     C_R   0.470083 0.464178 0.965133 0.003255
C23   C     C_R   0.328639 0.497798 0.500193 0.836190
C24   C     C_R   0.671360 0.502206 0.499808 0.836164
C25   C     C_R   0.810062 0.541573 0.409013 0.476871
C26   C     C_R   0.189937 0.458495 0.591024 0.476862
C27   C     C_R   0.768077 0.506208 0.499544 -0.184254
C28   C     C_R   0.231922 0.493822 0.500469 -0.184265
C29   C     C_R   0.818416 0.474909 0.591504 -0.298910
C30   C     C_R   0.181584 0.525119 0.408507 -0.298901
C31   C     C_R   0.910433 0.473909 0.592886 0.070631
C32   C     C_R   0.089567 0.526148 0.407142 0.070605
C33   C     C_R   0.953440 0.502180 0.499400 -0.046681
C34   C     C_R   0.046561 0.497889 0.500635 -0.046681
C35   C     C_R   0.903355 0.535161 0.405300 -0.084983
C36   C     C_R   0.096646 0.464923 0.594745 -0.084967
C37   C     C_R   0.959466 0.444373 0.687072 -0.307098
C38   C     C_R   0.040535 0.555709 0.312970 -0.307031
Cu1   Cu    Cu3+1 0.506660 0.507730 0.615930 1.010805
Cu2   Cu    Cu3+1 0.493340 0.492270 0.384070 1.010806
H1    H     H_    0.372281 0.344067 0.966411 0.148511
H2    H     H_    0.627720 0.655932 0.033589 0.148525
H3    H     H_    0.785642 0.449617 0.661862 0.174318
H4    H     H_    0.214360 0.550389 0.338136 0.174334
H5    H     H_    0.925266 0.427652 0.760539 0.151629
H6    H     H_    0.074728 0.572436 0.239499 0.151649
H7    H     H_    0.537425 0.812499 0.361027 0.163721
H8    H     H_    0.462559 0.187501 0.638967 0.163719
H9    H     H_    0.554226 0.964709 0.274310 0.138661
H10   H     H_    0.445761 0.035290 0.725685 0.138668
H11   H     H_    0.418173 0.402575 0.787940 0.164353
H12   H     H_    0.581830 0.597422 0.212059 0.164379
N1    N     N_R   0.516670 0.519360 0.790130 -0.218515
N2    N     N_R   0.483330 0.480640 0.209870 -0.218520
O1    O     O_R   0.504720 0.354460 0.582000 -0.618486
O2    O     O_R   0.495280 0.645540 0.418000 -0.618483
O3    O     O_R   0.493480 0.341410 0.386200 -0.497333
O4    O     O_R   0.506520 0.658590 0.613800 -0.497337
O5    O     O_R   0.375880 0.506510 0.597910 -0.543989
O6    O     O_R   0.624120 0.493490 0.402090 -0.544017
O7    O     O_R   0.364640 0.493450 0.402110 -0.567881
O8    O     O_R   0.635360 0.506550 0.597890 -0.567891
O9    O     O_3   0.759675 0.581599 0.324164 -0.523332
C39   C     C_3   0.745298 0.688793 0.366315 -0.287532
H13   H     H_    0.701699 0.699733 0.440710 0.134380
H14   H     H_    0.711158 0.722948 0.295139 0.167531
H15   H     H_    0.808918 0.732996 0.392654 0.146948
O10   O     O_3   0.240326 0.418495 0.675890 -0.523312
C40   C     C_3   0.254628 0.311271 0.633822 -0.287456
H16   H     H_    0.288812 0.277162 0.705002 0.167516
H17   H     H_    0.298156 0.300228 0.559349 0.134315
H18   H     H_    0.190975 0.267104 0.607630 0.147062
O11   O     O_3   0.100791 0.416743 0.787079 -0.525685
C41   C     C_3   0.072869 0.320866 0.814769 -0.307277
H19   H     H_    0.058387 0.259292 0.735654 0.135893
H20   H     H_    0.014345 0.332526 0.868373 0.163132
H21   H     H_    0.127384 0.291739 0.868391 0.183314
O12   O     O_3   0.899229 0.583422 0.213002 -0.525721
C42   C     C_3   0.927039 0.679447 0.185579 -0.306995
H22   H     H_    0.985706 0.668057 0.132222 0.162953
H23   H     H_    0.941255 0.740965 0.264816 0.135875
H24   H     H_    0.872566 0.708485 0.131813 0.183304
O13   O     O_3   0.449551 0.832518 0.733342 -0.560503
C43   C     C_3   0.506765 0.867573 0.833716 -0.251866
H25   H     H_    0.490131 0.948202 0.876078 0.126433
H26   H     H_    0.578034 0.863478 0.813777 0.173041
H27   H     H_    0.497210 0.815717 0.897811 0.189926
O14   O     O_3   0.550452 0.167488 0.266663 -0.560507
C44   C     C_3   0.493273 0.132405 0.166261 -0.251881
H28   H     H_    0.421995 0.136434 0.186166 0.172984
H29   H     H_    0.509962 0.051798 0.123890 0.126458
H30   H     H_    0.502808 0.184287 0.102187 0.189925
O15   O     O_3   0.627050 0.651324 0.800652 -0.562107
C45   C     C_3   0.717752 0.652148 0.839454 -0.363099
H31   H     H_    0.741256 0.573438 0.851998 0.164677
H32   H     H_    0.730914 0.710817 0.920881 0.155145
H33   H     H_    0.757420 0.676220 0.771755 0.195488
O16   O     O_3   0.372945 0.348684 0.199351 -0.562059
C46   C     C_3   0.282248 0.347830 0.160517 -0.363170
H34   H     H_    0.269105 0.289118 0.079121 0.155147
H35   H     H_    0.258738 0.426520 0.147906 0.164679
H36   H     H_    0.242570 0.323800 0.228231 0.195500

loop_
_geom_bond_atom_site_label_1
_geom_bond_atom_site_label_2
_ccdc_geom_bond_type
C16   C21   A    
Cu2   O6    S    
C16   H2    S    
C27   C29   A    
O11   C41   S    
C43   H27   S    
C6    C9    A    
C23   O5    A    
O15   C45   S    
C41   H20   S    
C19   C21   A    
C43   H26   S    
C20   H11   S    
C9    O14   S    
C10   O13   S    
C7    C9    A    
C25   O9    S    
C40   H17   S    
C18   N1    A    
C19   H12   S    
C15   C22   A    
Cu1   O1    S    
O13   C43   S    
O10   C40   S    
Cu2   O2    S    
C41   H21   S    
C24   C27   S    
C32   C38   A    
C44   H29   S    
C17   O16   S    
C4    C35   A    
C21   C22   A    
C29   H3    S    
C30   H4    S    
C11   H8    S    
C40   H16   S    
C12   H7    S    
C7    C14   A    
C41   H19   S    
C1    C6    S    
C39   H15   S    
C43   H25   S    
C7    H9    S    
C5    C12   A    
C6    C11   A    
C42   H23   S    
O12   C42   S    
C45   H33   S    
O9    C39   S    
Cu1   O4    S    
Cu2   O7    S    
C31   C37   A    
C39   H14   S    
C40   H18   S    
C4    O12   S    
C1    O3    A    
C46   H34   S    
C24   O6    A    
Cu1   O5    S    
C31   C33   A    
C33   C34   A    
C23   C28   S    
C44   H30   S    
C45   H32   S    
C15   H1    S    
C25   C35   A    
C19   N2    A    
C26   C36   A    
C46   H35   S    
C4    C38   A    
Cu2   N2    S    
C2    C5    S    
C37   H5    S    
C8    H10   S    
Cu1   Cu2   S    
C15   C17   A    
Cu1   O8    S    
C24   O8    A    
Cu2   O3    S    
C8    C10   A    
C20   C22   A    
C20   N1    A    
C42   H24   S    
C2    O4    A    
C25   C27   A    
C26   C28   A    
C26   O10   S    
C39   H13   S    
C28   C30   A    
C12   C14   A    
C5    C10   A    
C29   C31   A    
C2    O2    A    
C30   C32   A    
C11   C13   A    
Cu1   N1    S    
C3    C36   A    
C33   C35   A    
C34   C36   A    
C1    O1    A    
C45   H31   S    
C3    O11   S    
C38   H6    S    
C42   H22   S    
C8    C13   A    
C23   O7    A    
C46   H36   S    
O14   C44   S    
C3    C37   A    
C16   C18   A    
O16   C46   S    
C18   O15   S    
C44   H28   S    
C13   C14   A    
C17   N2    A    
C32   C34   A    
