data_mof_unit_58463.cif
_audit_creation_date              2012-12-10T19:43:27-0500
_audit_creation_method            fapswitch 2.2
_symmetry_space_group_name_H-M    P1
_symmetry_Int_Tables_number       1
_space_group_crystal_system       triclinic
_cell_length_a                    10.930769
_cell_length_b                    10.855873
_cell_length_c                    9.676381
_cell_angle_alpha                 90.374671
_cell_angle_beta                  91.7414
_cell_angle_gamma                 93.513443
_cell_volume                      1145.50071283

loop_
_atom_site_label
_atom_site_type_symbol
_atom_type_description
_atom_site_fract_x
_atom_site_fract_y
_atom_site_fract_z
_atom_type_partial_charge
C1    C     C_R   0.507919 0.263141 0.501051 0.802476
C2    C     C_R   0.247347 0.661161 0.025118 -0.134755
C3    C     C_R   0.934330 0.537315 0.390638 -0.252581
C4    C     C_R   0.872312 0.494045 0.505215 -0.126805
C5    C     C_R   0.940434 0.449753 0.618381 -0.081731
C6    C     C_R   0.065920 0.431355 0.605343 0.356365
C7    C     C_R   0.127968 0.484193 0.493079 -0.141106
C8    C     C_R   0.060467 0.534735 0.383158 -0.088604
C9    C     C_R   0.929698 0.579000 0.831672 0.105683
C10   C     C_R   0.895919 0.587744 0.970886 0.469949
C11   C     C_R   0.828973 0.487586 0.031478 -0.258237
C12   C     C_R   0.262527 0.494028 0.497755 0.836115
C13   C     C_R   0.797719 0.379420 0.957604 -0.199446
C14   C     C_R   0.833495 0.368039 0.822270 -0.161816
C15   C     C_R   0.898298 0.466307 0.759340 0.027311
C16   C     C_R   0.542400 0.118047 0.764098 -0.177493
C17   C     C_R   0.508739 0.058367 0.885287 -0.172510
C18   C     C_R   0.445782 0.943577 0.877779 -0.122865
C19   C     C_R   0.428684 0.882876 0.750762 -0.168501
C20   C     C_R   0.474272 0.937323 0.628730 0.097404
C21   C     C_R   0.512097 0.063470 0.632765 0.109823
C22   C     C_R   0.516079 0.128926 0.505632 -0.114486
C23   C     C_R   0.492046 0.736855 0.500541 0.763923
C24   C     C_R   0.510879 0.063412 0.380282 -0.224777
C25   C     C_R   0.500849 0.935878 0.379558 -0.234666
C26   C     C_R   0.484185 0.871173 0.503088 -0.128312
C27   C     C_R   0.634776 0.689361 0.147270 -0.196921
C28   C     C_R   0.682874 0.792198 0.077915 -0.227155
C29   C     C_R   0.684222 0.790488 0.935200 -0.144687
C30   C     C_R   0.636743 0.686610 0.862792 -0.135144
C31   C     C_R   0.565104 0.593118 0.928158 0.194555
C32   C     C_R   0.564328 0.593859 0.076921 0.221578
C33   C     C_R   0.440750 0.408855 0.070932 -0.077961
C34   C     C_R   0.737787 0.499334 0.502306 0.788521
C35   C     C_R   0.440287 0.409227 0.923531 -0.078335
C36   C     C_R   0.236051 0.743153 0.135059 -0.136135
C37   C     C_R   0.169707 0.707042 0.251508 0.177607
C38   C     C_R   0.118803 0.584222 0.258232 0.147199
C39   C     C_R   0.129868 0.503116 0.146407 -0.124372
C40   C     C_R   0.191847 0.542435 0.029495 -0.115695
Cu1   Cu    Cu3+1 0.499990 0.499990 0.640660 0.940856
Cu2   Cu    Cu3+1 0.500010 0.500010 0.359340 0.929447
H1    H     H_    0.297414 0.690044 0.935386 0.126478
H2    H     H_    0.798289 0.492561 0.135538 0.158287
H3    H     H_    0.746082 0.303965 0.005895 0.150319
H4    H     H_    0.811333 0.282597 0.766026 0.129891
H5    H     H_    0.515728 0.110609 0.282109 0.157982
H6    H     H_    0.595187 0.204824 0.776115 0.162543
H7    H     H_    0.529623 0.102215 0.984768 0.124836
H8    H     H_    0.415805 0.899023 0.971143 0.128235
H9    H     H_    0.377677 0.794666 0.749102 0.151630
H10   H     H_    0.504251 0.888130 0.281315 0.174735
H11   H     H_    0.390733 0.334623 0.122962 0.135078
H12   H     H_    0.277234 0.836011 0.129412 0.118649
H13   H     H_    0.662222 0.684324 0.253704 0.193860
H14   H     H_    0.730414 0.867747 0.135039 0.153287
H15   H     H_    0.729029 0.866454 0.880901 0.144985
H16   H     H_    0.663157 0.679877 0.757860 0.192998
H17   H     H_    0.389801 0.335310 0.866977 0.169404
H18   H     H_    0.090618 0.409135 0.150136 0.124636
H19   H     H_    0.198306 0.480093 0.942983 0.171990
H20   H     H_    0.884274 0.582328 0.311829 0.140749
N1    N     N_R   0.501190 0.501210 0.147910 -0.191171
N2    N     N_R   0.501230 0.501290 0.852040 -0.203139
O1    O     O_R   0.499990 0.319640 0.618810 -0.586813
O2    O     O_R   0.500000 0.319660 0.381240 -0.587328
O3    O     O_R   0.319640 0.500000 0.618780 -0.533879
O4    O     O_R   0.319650 0.500020 0.381210 -0.581836
O5    O     O_R   0.500000 0.680340 0.618760 -0.614486
O6    O     O_R   0.500010 0.680360 0.381190 -0.594673
O7    O     O_R   0.680350 0.499980 0.618790 -0.588923
O8    O     O_R   0.680360 0.500000 0.381220 -0.607135
C41   C     C_3   0.157017 0.801280 0.365232 -0.453535
C42   C     C_3   0.075224 0.904955 0.317739 -0.336710
C43   C     C_3   0.129056 0.032268 0.364469 -0.835948
H21   H     H_    0.145824 0.035470 0.478106 0.269563
H22   H     H_    0.217148 0.054355 0.313000 0.254858
H23   H     H_    0.064213 0.103372 0.335763 0.238716
H24   H     H_    0.062774 0.906222 0.203239 0.235999
H25   H     H_    0.982557 0.888381 0.360834 0.205364
H26   H     H_    0.118453 0.758538 0.459539 0.183477
H27   H     H_    0.250280 0.839426 0.396051 0.212487
O9    O     O_3   0.131613 0.371538 0.706369 -0.751124
H28   H     H_    0.074119 0.323318 0.765422 0.316234
C44   C     C_3   0.999864 0.683904 0.754758 -0.398057
C45   C     C_3   0.018293 0.812294 0.823083 -0.286267
C46   C     C_3   0.073921 0.906910 0.723514 -0.933247
H29   H     H_    0.162691 0.877235 0.686375 0.262908
H30   H     H_    0.009875 0.918216 0.633857 0.265416
H31   H     H_    0.090338 0.997500 0.777011 0.257556
H32   H     H_    0.929464 0.844654 0.855015 0.242236
H33   H     H_    0.081479 0.809593 0.914362 0.265115
H34   H     H_    0.092140 0.653328 0.731275 0.199007
H35   H     H_    0.949640 0.697339 0.655018 0.189368
O10   O     O_3   0.930925 0.692649 0.046227 -0.779485
H36   H     H_    0.891163 0.690216 0.135953 0.311163

loop_
_geom_bond_atom_site_label_1
_geom_bond_atom_site_label_2
_ccdc_geom_bond_type
C46   H29   S    
C16   C21   A    
Cu1   Cu2   S    
C23   O5    A    
O10   H36   S    
C16   H6    S    
C28   H14   S    
C7    C8    A    
C14   H4    S    
C44   C45   S    
C12   O4    A    
C37   C38   A    
C36   C37   A    
C45   H32   S    
C5    C6    A    
C27   H13   S    
Cu2   O6    S    
C34   O7    A    
C35   H17   S    
C18   C19   A    
C41   C42   S    
C23   C26   S    
C9    C44   S    
C44   H34   S    
C31   C32   A    
C16   C17   A    
C1    O1    A    
C35   N2    A    
C9    C10   A    
Cu1   O7    S    
C1    C22   S    
C42   H25   S    
C21   C22   A    
Cu2   O4    S    
C23   O6    A    
C8    C38   S    
C41   H26   S    
C1    O2    A    
C33   H11   S    
C7    C12   S    
C12   O3    A    
C4    C34   S    
C42   C43   S    
C38   C39   A    
C24   C25   A    
Cu1   O3    S    
C3    C8    A    
C17   H7    S    
C39   C40   A    
C45   C46   S    
Cu1   O1    S    
C25   C26   A    
C40   H19   S    
C43   H21   S    
C29   C30   A    
C2    C40   A    
C44   H35   S    
O9    H28   S    
C2    H1    S    
C33   N1    A    
Cu2   O8    S    
C17   C18   A    
C11   H2    S    
C43   H22   S    
C29   H15   S    
C42   H24   S    
C46   H30   S    
C22   C24   A    
C3    C4    A    
C34   O8    A    
C41   H27   S    
C18   H8    S    
Cu1   O5    S    
C3    H20   S    
C2    C36   A    
C37   C41   S    
C28   C29   A    
C6    O9    S    
C27   C32   A    
C24   H5    S    
C31   N2    A    
C32   N1    A    
C4    C5    A    
C6    C7    A    
C19   C20   A    
C9    C15   A    
C25   H10   S    
C45   H33   S    
C13   H3    S    
C11   C13   A    
C30   C31   A    
C20   C26   A    
C10   O10   S    
C39   H18   S    
C30   H16   S    
C33   C35   A    
C43   H23   S    
C5    C15   S    
C36   H12   S    
C10   C11   A    
C19   H9    S    
C20   C21   A    
C46   H31   S    
C27   C28   A    
Cu2   O2    S    
C14   C15   A    
Cu1   N2    S    
C13   C14   A    
Cu2   N1    S    
