data_mof_unit_32777.cif
_audit_creation_date              2012-12-11T15:39:34-0500
_audit_creation_method            fapswitch 2.2
_symmetry_space_group_name_H-M    P1
_symmetry_Int_Tables_number       1
_space_group_crystal_system       triclinic
_cell_length_a                    6.981577
_cell_length_b                    15.106764
_cell_length_c                    16.676014
_cell_angle_alpha                 95.227165
_cell_angle_beta                  91.214313
_cell_angle_gamma                 90.870372
_cell_volume                      1750.83653695

loop_
_atom_site_label
_atom_site_type_symbol
_atom_type_description
_atom_site_fract_x
_atom_site_fract_y
_atom_site_fract_z
_atom_type_partial_charge
O1    O     O_R   0.633330 0.174290 0.828230 -0.541255
O2    O     O_R   0.366670 0.825710 0.171770 -0.534406
O3    O     O_R   0.301450 0.154140 0.662030 -0.531109
O4    O     O_R   0.698550 0.845860 0.337970 -0.521676
O5    O     O_R   0.133140 0.325730 0.671770 -0.536037
O6    O     O_R   0.866860 0.674270 0.328230 -0.546144
C1    C     C_R   0.468822 0.131433 0.633896 0.769714
C2    C     C_R   0.531132 0.868046 0.366531 0.821489
O7    O     O_R   0.303490 0.163670 0.827000 -0.546652
O8    O     O_R   0.696510 0.836330 0.173000 -0.531289
O9    O     O_R   0.135190 0.335320 0.837920 -0.523128
O10   O     O_R   0.864810 0.664680 0.162080 -0.530197
C3    C     C_R   0.472797 0.143042 0.853697 0.668414
C4    C     C_R   0.527201 0.856639 0.146028 0.749910
O11   O     O_R   0.631280 0.164690 0.662080 -0.513941
O12   O     O_R   0.368720 0.835310 0.337920 -0.519608
O13   O     O_3   0.467420 0.306310 0.753380 -0.364508
O14   O     O_3   0.532580 0.693690 0.246620 -0.398951
V1    V     V_3+5 0.191790 0.239560 0.749370 1.501115
V2    V     V_3+5 0.808210 0.760440 0.250630 1.560077
O15   O     O_R   0.805590 0.345870 0.837970 -0.532761
O16   O     O_R   0.194410 0.654130 0.162030 -0.548056
C5    C     C_R   0.976919 0.364350 0.868883 0.800349
C6    C     C_R   0.022495 0.628125 0.136611 0.827311
O17   O     O_R   0.803560 0.336340 0.672990 -0.538361
O18   O     O_R   0.196440 0.663660 0.327010 -0.543943
C7    C     C_R   0.971900 0.356483 0.645896 0.731265
C8    C     C_R   0.028069 0.643363 0.353983 0.716680
V3    V     V_3+5 0.692030 0.260450 0.750630 1.496010
V4    V     V_3+5 0.307970 0.739550 0.249370 1.515318
O19   O     O_3   0.966260 0.193700 0.746610 -0.354433
O20   O     O_3   0.033740 0.806300 0.253390 -0.345322
C9    C     C_1   0.981730 0.418425 0.583337 -0.187113
C10   C     C_1   0.018195 0.581224 0.416380 -0.161240
C11   C     C_1   0.992843 0.469660 0.530789 0.020925
C12   C     C_1   0.007060 0.529882 0.468841 0.029058
C13   C     C_3   0.893840 0.557144 0.990294 0.330544
C14   C     C_3   0.102801 0.418817 0.025558 0.337958
C15   C     C_3   0.071587 0.523873 0.943610 0.242851
C16   C     C_3   0.930572 0.455069 0.074847 0.163109
C17   C     C_3   0.994468 0.427134 0.944282 -0.391172
C18   C     C_3   0.005871 0.552142 0.070882 -0.354974
C19   C     C_3   0.819685 0.460285 0.993753 0.298380
C20   C     C_3   0.179662 0.514932 0.024365 0.378668
C21   C     C_3   0.670764 0.017613 0.536821 0.244851
C22   C     C_3   0.329545 0.980922 0.463685 0.320532
C23   C     C_3   0.569596 0.925247 0.526654 0.272285
C24   C     C_3   0.428740 0.073299 0.473013 0.283499
C25   C     C_3   0.519872 0.936775 0.437481 -0.388984
C26   C     C_3   0.478771 0.062443 0.563029 -0.440707
C27   C     C_3   0.618572 0.029520 0.447391 0.381630
C28   C     C_3   0.380705 0.969414 0.552963 0.393827
C29   C     C_1   0.483557 0.081271 0.916318 -0.203005
C30   C     C_1   0.516347 0.918693 0.083594 -0.152801
C31   C     C_1   0.493694 0.030131 0.968977 0.009551
C32   C     C_1   0.506136 0.969994 0.031051 0.024725
Cl1   Cl    Cl    0.175446 0.570075 0.859708 -0.655433
Cl2   Cl    Cl    0.855420 0.414322 0.166469 -0.711656
O21   O     O_3   0.784036 0.632278 0.976705 -0.539376
C33   C     C_3   0.688059 0.618712 0.901375 -0.021473
H1    H     H_    0.587074 0.561114 0.898697 0.217640
H2    H     H_    0.789959 0.610369 0.851210 0.147658
H3    H     H_    0.602274 0.678371 0.892444 0.163831
O22   O     O_3   0.220997 0.349395 0.046844 -0.549796
C34   C     C_3   0.121717 0.267240 0.035750 -0.199046
H4    H     H_    0.094252 0.246773 0.970943 0.104296
H5    H     H_    0.986324 0.267932 0.069461 0.182185
H6    H     H_    0.213539 0.215850 0.059454 0.161932
O23   O     O_3   0.632028 0.427498 0.974885 -0.525950
C35   C     C_3   0.616682 0.336009 0.987524 -0.005219
H7    H     H_    0.742847 0.296330 0.969126 0.046398
H8    H     H_    0.492693 0.306805 0.951342 0.158170
H9    H     H_    0.592933 0.325994 0.051420 0.161982
O24   O     O_3   0.370325 0.544085 0.041735 -0.521457
C36   C     C_3   0.434035 0.515378 0.116267 0.080043
H10   H     H_    0.322183 0.512679 0.162368 0.089920
H11   H     H_    0.552507 0.559796 0.140960 0.159774
H12   H     H_    0.489503 0.448097 0.108362 0.189017
O25   O     O_3   0.627500 0.848726 0.563002 -0.539630
C37   C     C_3   0.785098 0.809508 0.523492 -0.069840
H13   H     H_    0.895384 0.858954 0.509565 0.219019
H14   H     H_    0.736291 0.768027 0.468427 0.101581
H15   H     H_    0.854273 0.764505 0.563940 0.152506
O26   O     O_3   0.358017 0.145104 0.432945 -0.533358
C38   C     C_3   0.260374 0.205053 0.486186 -0.150242
H16   H     H_    0.363406 0.244419 0.527282 0.108154
H17   H     H_    0.150509 0.170801 0.519999 0.183336
H18   H     H_    0.184703 0.252887 0.450616 0.136326
Cl3   Cl    Cl    0.898139 0.039404 0.585375 -0.577953
Cl4   Cl    Cl    0.103372 0.960902 0.414170 -0.540233
O27   O     O_3   0.743800 0.057595 0.389038 -0.503944
C39   C     C_3   0.788916 0.148837 0.405014 -0.016847
H19   H     H_    0.811997 0.169746 0.470279 0.099100
H20   H     H_    0.675716 0.189406 0.379431 0.156689
H21   H     H_    0.923491 0.162956 0.374087 0.171650
O28   O     O_3   0.249234 0.931033 0.603432 -0.506201
C40   C     C_3   0.319986 0.937533 0.683662 -0.046984
H22   H     H_    0.272092 0.000223 0.716285 0.133841
H23   H     H_    0.478680 0.933019 0.689187 0.128868
H24   H     H_    0.257504 0.881936 0.714137 0.152451

loop_
_geom_bond_atom_site_label_1
_geom_bond_atom_site_label_2
_ccdc_geom_bond_type
V4    O20   S    
C31   C32   S    
C6    C18   S    
C11   C12   S    
C23   O25   S    
O4    C2    A    
V1    O19   S    
C40   H22   S    
C23   C25   S    
C38   H16   S    
C7    C9    S    
C22   C25   S    
O9    V1    S    
C33   H3    S    
O3    C1    A    
C9    C11   T    
C21   C27   S    
O12   V4    S    
C15   Cl1   S    
C22   C28   S    
O13   V3    S    
C33   H2    S    
C21   C23   S    
O9    C5    A    
C13   C18   S    
O7    C3    A    
C27   O27   S    
O5    C7    A    
O7    V1    S    
C24   C27   S    
O6    C8    A    
O8    V2    S    
C34   H5    S    
C26   C28   S    
O3    V1    S    
C35   H7    S    
O14   V4    S    
C21   Cl3   S    
C14   O22   S    
C24   C26   S    
C8    C10   S    
O21   C33   S    
C2    O12   A    
C17   C19   S    
C18   C20   S    
C37   H15   S    
O1    V3    S    
C40   H23   S    
O11   V3    S    
C3    C29   S    
C29   C31   T    
O17   V3    S    
C13   C15   S    
C22   C24   S    
C16   Cl2   S    
O24   C36   S    
C38   H17   S    
O26   C38   S    
C14   C17   S    
C37   H14   S    
O8    C4    A    
O27   C39   S    
C25   C27   S    
O15   V3    S    
C39   H21   S    
C24   O26   S    
C33   H1    S    
C13   C19   S    
C36   H10   S    
C14   C20   S    
C16   C18   S    
C34   H6    S    
O28   C40   S    
O10   V2    S    
C35   H9    S    
C39   H20   S    
C20   O24   S    
C36   H11   S    
C13   O21   S    
O5    V1    S    
C4    C30   S    
O18   V4    S    
O15   C5    A    
O16   C6    A    
O1    C3    A    
C15   C20   S    
C40   H24   S    
V2    O20   S    
C38   H18   S    
O16   V4    S    
C1    C26   S    
C37   H13   S    
C30   C32   T    
C23   C28   S    
C22   Cl4   S    
O17   C7    A    
O6    V2    S    
O10   C6    A    
O18   C8    A    
C5    C17   S    
O2    V4    S    
O22   C34   S    
C16   C19   S    
V3    O19   S    
C14   C16   S    
C21   C26   S    
C1    O11   A    
C39   H19   S    
O13   V1    S    
C10   C12   T    
C28   O28   S    
O14   V2    S    
O23   C35   S    
O2    C4    A    
C36   H12   S    
O25   C37   S    
O4    V2    S    
C15   C17   S    
C19   O23   S    
C34   H4    S    
C35   H8    S    
C2    C25   S    
