data_mof_unit_12124.cif
_audit_creation_date              2013-03-05T15:53:44-0500
_audit_creation_method            fapswitch 2.2
_symmetry_space_group_name_H-M    P1
_symmetry_Int_Tables_number       1
_space_group_crystal_system       triclinic
_cell_length_a                    14.88277
_cell_length_b                    14.823269
_cell_length_c                    16.968452
_cell_angle_alpha                 109.205804
_cell_angle_beta                  106.200011
_cell_angle_gamma                 108.138117
_cell_volume                      3040.93041866

loop_
_atom_site_label
_atom_site_type_symbol
_atom_site_description
_atom_site_fract_x
_atom_site_fract_y
_atom_site_fract_z
_atom_type_partial_charge
C1    C     C_R   0.089025 0.278954 0.061557 0.412609
N1    N     N_R   0.055640 0.348550 0.045600 -0.126075
C2    C     C_R   0.933975 0.527670 0.751706 0.476212
N2    N     N_R   0.960830 0.507850 0.823710 -0.073804
C3    C     C_R   0.778942 0.201710 0.810892 -0.016087
H1    H     H_    0.765161 0.135964 0.827092 0.167757
N3    N     N_R   0.811290 0.303400 0.871650 -0.051472
C4    C     C_R   0.250857 0.528797 0.942715 -0.121631
H2    H     H_    0.256676 0.558841 0.893750 0.125605
N4    N     N_R   0.205180 0.552990 0.997660 -0.042116
C5    C     C_R   0.788805 0.299611 0.735990 -0.098033
H3    H     H_    0.789401 0.328267 0.685507 0.151114
N5    N     N_R   0.814810 0.361830 0.823710 -0.048961
C6    C     C_R   0.252348 0.436181 0.022621 -0.172354
H4    H     H_    0.266838 0.383667 0.049998 0.140154
N6    N     N_R   0.201660 0.494570 0.045600 -0.049579
C7    C     C_R   0.106550 0.608766 0.825842 -0.210008
H5    H     H_    0.186773 0.667064 0.854462 0.127803
N7    N     N_R   0.068420 0.560530 0.871650 -0.066709
C8    C     C_R   0.916886 0.195192 0.987093 0.192003
N8    N     N_R   0.948050 0.295860 0.997660 -0.108680
C9    C     C_R   0.005076 0.178004 0.017109 -0.000391
C10   C     C_R   0.024341 0.590431 0.749601 -0.055047
C11   C     C_R   0.768084 0.197393 0.725124 0.039024
C12   C     C_R   0.282708 0.455921 0.956945 0.106010
C13   C     C_R   0.272469 0.692002 0.254680 -0.093306
H6    H     H_    0.296663 0.657605 0.298819 0.103926
N9    N     N_R   0.185190 0.638170 0.176290 -0.047817
C14   C     C_R   0.704398 0.499171 0.916602 -0.059507
H7    H     H_    0.682207 0.521283 0.862270 0.151669
N10   N     N_R   0.798340 0.505430 0.954400 -0.066428
C15   C     C_R   0.890411 0.457853 0.189061 0.515099
N11   N     N_R   0.931580 0.439470 0.128350 -0.067986
C16   C     C_R   0.079630 0.808673 0.047171 -0.124816
H8    H     H_    0.158799 0.870090 0.090411 0.139519
N12   N     N_R   0.051950 0.704140 0.002340 -0.052609
C17   C     C_R   0.906918 0.723827 0.969979 -0.087867
H9    H     H_    0.825304 0.705799 0.941693 0.184340
N13   N     N_R   0.944360 0.651450 0.954400 -0.055827
C18   C     C_R   0.063962 0.547091 0.265614 -0.121137
H10   H     H_    0.142950 0.594665 0.317939 0.203885
N14   N     N_R   0.039170 0.492150 0.176290 -0.091937
C19   C     C_R   0.277221 0.787077 0.177289 -0.132623
H11   H     H_    0.306674 0.839651 0.149455 0.108467
N15   N     N_R   0.188710 0.696600 0.128350 -0.041197
C20   C     C_R   0.696974 0.405598 0.994525 0.030822
H12   H     H_    0.667633 0.344025 0.013770 0.233696
N16   N     N_R   0.794820 0.447010 0.002340 -0.066451
Ni1   Ni    Ni4+2 0.119330 0.493420 0.109950 0.205949
Ni2   Ni    Ni4+2 0.880670 0.506580 0.890050 0.266819
Ni3   Ni    Ni4+2 0.872590 0.372590 0.000000 0.320369
Ni4   Ni    Ni4+2 0.127410 0.627410 0.000000 0.209143
C21   C     C_R   0.332321 0.786676 0.257405 0.071050
C22   C     C_R   0.638213 0.437222 0.940500 0.008047
C23   C     C_R   0.971630 0.531952 0.276460 -0.086451
C24   C     C_R   0.989982 0.824660 0.029393 0.101446
C25   C     C_R   0.397992 0.472581 0.876872 0.073323
C26   C     C_R   0.345170 0.417280 0.915425 0.060851
C27   C     C_R   0.366864 0.335038 0.925280 -0.370650
H13   H     H_    0.320329 0.283934 0.946079 0.131807
C28   C     C_R   0.457475 0.327732 0.919784 0.555299
C29   C     C_R   0.526286 0.406537 0.906962 -0.044990
C30   C     C_R   0.487704 0.467737 0.873153 -0.117038
C31   C     C_3   0.536246 0.583414 0.892893 0.770919
C32   C     C_3   0.437048 0.587532 0.896320 -0.645751
H14   H     H_    0.448940 0.641496 0.965847 0.199757
H15   H     H_    0.390647 0.597846 0.838927 0.224881
C33   C     C_R   0.964061 0.583920 0.363663 0.069734
C34   C     C_R   0.033122 0.630883 0.681872 0.083188
C35   C     C_R   0.142513 0.700031 0.611808 0.325978
C36   C     C_R   0.131726 0.687442 0.687315 -0.230798
C37   C     C_R   0.943981 0.599185 0.604030 -0.244414
C38   C     C_R   0.952214 0.613651 0.529348 0.131925
C39   C     C_R   0.051497 0.660228 0.530226 -0.192601
C40   C     C_R   0.054590 0.655620 0.446482 0.504080
C41   C     C_R   0.866834 0.557525 0.367241 -0.272535
C42   C     C_R   0.860956 0.572852 0.450169 -0.161135
H16   H     H_    0.794733 0.520971 0.306437 0.187578
H17   H     H_    0.784692 0.543702 0.450557 0.152167
H18   H     H_    0.202094 0.712854 0.746544 0.158522
H19   H     H_    0.866968 0.552802 0.595314 0.171696
C43   C     C_R   0.730647 0.103103 0.636419 -0.008745
C44   C     C_R   0.439234 0.864283 0.324967 0.101454
C45   C     C_R   0.577442 0.043997 0.398734 -0.164156
C46   C     C_R   0.484677 0.963049 0.325412 -0.149035
C47   C     C_R   0.493344 0.843952 0.394029 -0.192530
C48   C     C_R   0.583733 0.926359 0.469803 0.110019
C49   C     C_R   0.623440 0.027884 0.473498 0.175123
C50   C     C_R   0.700150 0.114534 0.555542 -0.275952
C51   C     C_R   0.705950 0.999409 0.628694 0.361353
C52   C     C_R   0.630569 0.911225 0.545009 -0.277757
H20   H     H_    0.725051 0.191977 0.557180 0.141734
H21   H     H_    0.608103 0.121568 0.400440 0.140001
H22   H     H_    0.605537 0.831748 0.539846 0.193180
H23   H     H_    0.446023 0.980750 0.272437 0.137658
H24   H     H_    0.461781 0.767171 0.393200 0.132711
C53   C     C_R   0.105412 0.066121 0.008291 0.128273
C54   C     C_R   0.010347 0.073646 0.983462 -0.045030
C55   C     C_R   0.921676 0.980296 0.910746 -0.100701
H25   H     H_    0.846032 0.979423 0.887941 0.231903
C56   C     C_R   0.931161 0.891490 0.856526 0.559583
C57   C     C_R   0.030272 0.893485 0.875875 -0.218211
C58   C     C_R   0.114054 0.977270 0.956172 0.006276
C59   C     C_3   0.221569 0.040208 0.970134 0.311768
C60   C     C_3   0.213180 0.138254 0.026361 -0.377902
H26   H     H_    0.229342 0.037457 0.906042 0.079386
H27   H     H_    0.268161 0.179448 0.100590 0.248952
H28   H     H_    0.211702 0.190823 0.992784 0.130947
O1    O     O_3   0.180819 0.308843 0.133480 -0.759384
H29   H     H_    0.215574 0.387872 0.166961 0.316482
O2    O     O_3   0.788833 0.395625 0.168128 -0.767919
H30   H     H_    0.790629 0.373683 0.217522 0.326312
O3    O     O_3   0.482921 0.250522 0.933518 -0.741994
H31   H     H_    0.426382 0.203046 0.941724 0.333601
O4    O     O_3   0.624935 0.652029 0.977809 -0.743485
H32   H     H_    0.610846 0.634289 0.026073 0.306975
O5    O     O_3   0.836350 0.521272 0.714012 -0.772606
H33   H     H_    0.846687 0.593545 0.722178 0.314588
N17   N     N_R   0.552816 0.597840 0.815744 0.243582
O6    O     O_R   0.633742 0.679754 0.831475 -0.304041
O7    O     O_R   0.484776 0.531700 0.731026 -0.369694
O8    O     O_3   0.140811 0.721872 0.443450 -0.739460
H34   H     H_    0.174595 0.791260 0.499450 0.339104
N18   N     N_R   0.245593 0.737659 0.615468 0.239911
O9    O     O_R   0.321660 0.822893 0.687488 -0.359373
O10   O     O_R   0.267642 0.675638 0.557488 -0.334611
N19   N     N_R   0.758066 0.982414 0.703280 0.218419
O11   O     O_R   0.709028 0.900832 0.713830 -0.324307
O12   O     O_R   0.858555 0.038560 0.751645 -0.455853
O13   O     O_3   0.843855 0.808515 0.780281 -0.652597
H35   H     H_    0.866219 0.759471 0.744442 0.308625
O14   O     O_3   0.294519 0.019751 0.024925 -0.717335
H36   H     H_    0.293708 0.954458 0.982271 0.325620
N20   N     N_R   0.818682 0.137711 0.986280 0.240160
O15   O     O_R   0.808615 0.066781 0.016602 -0.355496
O16   O     O_R   0.748782 0.173370 0.976640 -0.372952

loop_
_geom_bond_atom_site_label_1
_geom_bond_atom_site_label_2
_geom_bond_distance
_ccdc_geom_bond_type
C48   C49   1.407652 A    
C16   C24   1.395188 A    
C56   C57   1.407358 A    
C9    C54   1.498187 S    
C15   O2    1.370776 S    
C48   C52   1.397892 A    
C40   O8    1.378113 S    
C5    N5    1.330069 A    
C38   C39   1.416335 A    
C10   C34   1.478458 S    
C2    C10   1.394697 A    
O2    H30   0.990583 S    
N4    Ni4   1.830289 S    
C59   H26   1.114338 S    
C53   C54   1.410063 A    
C51   C52   1.400181 A    
C33   C40   1.410341 A    
C60   H27   1.112067 S    
C13   H6    1.079669 S    
C7    C10   1.386679 A    
C31   N17   1.466887 S    
N11   N14   1.382834 A    
C17   H9    1.079512 S    
C41   H16   1.077945 S    
C16   H8    1.079691 S    
C3    H1    1.072714 S    
C14   C22   1.372102 A    
O4    H32   0.993474 S    
C5    C11   1.385096 A    
C1    N1    1.346226 A    
C34   C36   1.404414 A    
C11   C43   1.480748 S    
C59   C60   1.518320 S    
C2    O5    1.372907 S    
C1    O1    1.374472 S    
N2    N7    1.382834 A    
N7    Ni4   1.862128 S    
C19   C21   1.380917 A    
N16   Ni3   1.830288 S    
O14   H36   0.993845 S    
C32   H15   1.112259 S    
C35   C39   1.420575 A    
C51   N19   1.431966 S    
C25   C30   1.376777 A    
C35   C36   1.398415 A    
C14   H7    1.078333 S    
C15   C23   1.402972 A    
C1    C9    1.391640 A    
C37   H19   1.075244 S    
N12   Ni4   1.829467 S    
C53   C60   1.500625 S    
C56   O13   1.376575 S    
C18   N14   1.336198 A    
C27   H13   1.078745 S    
C31   O4    1.411241 S    
C14   N10   1.324541 A    
C4    C12   1.369876 A    
C17   C24   1.393350 A    
C28   C29   1.416828 A    
C36   H18   1.080163 S    
C23   C33   1.480780 S    
C41   C42   1.382068 A    
N17   O7    1.302101 A    
C60   H28   1.108199 S    
C20   N16   1.340568 A    
N9    N15   1.368838 A    
C27   C28   1.411895 A    
C39   C40   1.414438 A    
C45   C46   1.386259 A    
C3    N3    1.347448 A    
C47   C48   1.390478 A    
C4    H2    1.075054 S    
N20   O16   1.301044 A    
C22   C29   1.461020 S    
N15   Ni4   1.861883 S    
C26   C27   1.402664 A    
N5    Ni2   1.821424 S    
N2    Ni2   1.854745 S    
C34   C37   1.396881 A    
C19   H11   1.080521 S    
N19   O12   1.301409 A    
C29   C30   1.401684 A    
N1    Ni1   1.820631 S    
N9    Ni1   1.821423 S    
C55   H25   1.077911 S    
N17   O6    1.301169 A    
C18   C23   1.395992 A    
C20   C22   1.384035 A    
N1    N8    1.382835 A    
C7    H5    1.079849 S    
C42   H17   1.084294 S    
N6    Ni1   1.854646 S    
C50   H20   1.079029 S    
C19   N15   1.334347 A    
C53   C58   1.391371 A    
C47   H24   1.081268 S    
C18   H10   1.075680 S    
C44   C46   1.405096 A    
C8    C9    1.402708 A    
C54   C55   1.417706 A    
N10   N16   1.368719 A    
C28   O3    1.379752 S    
C6    N6    1.348656 A    
N11   Ni3   1.862125 S    
C12   C26   1.456055 S    
N10   Ni2   1.854649 S    
C2    N2    1.332538 A    
C13   C21   1.386029 A    
N8    Ni3   1.829467 S    
N18   O10   1.301415 A    
O3    H31   0.991898 S    
C20   H12   1.076056 S    
C55   C56   1.410898 A    
C8    N8    1.349313 A    
N12   N13   1.382837 A    
C45   C49   1.397023 A    
C25   C32   1.502192 S    
C37   C38   1.384178 A    
C5    H3    1.074990 S    
N20   O15   1.301337 A    
C33   C41   1.400981 A    
C13   N9    1.336245 A    
C43   C51   1.415533 A    
C21   C44   1.464322 S    
C31   C32   1.512754 S    
O13   H35   0.990882 S    
N3    Ni3   1.861886 S    
N13   Ni2   1.820630 S    
C17   N13   1.341364 A    
N4    N6    1.368720 A    
O1    H29   0.991734 S    
C15   N11   1.335048 A    
C52   H22   1.083995 S    
C46   H23   1.080934 S    
C25   C26   1.398746 A    
C3    C11   1.396168 A    
C43   C50   1.404060 A    
C7    N7    1.340389 A    
C16   N12   1.342238 A    
C45   H21   1.084094 S    
C6    C12   1.394597 A    
C57   C58   1.388596 A    
N14   Ni1   1.854747 S    
C30   C31   1.513324 S    
C35   N18   1.435198 S    
N3    N5    1.368840 A    
C44   C47   1.403387 A    
C49   C50   1.383828 A    
C4    N4    1.321143 A    
C32   H14   1.112420 S    
C59   O14   1.400830 S    
C58   C59   1.483415 S    
C38   C42   1.396890 A    
C6    H4    1.074617 S    
C8    N20   1.438045 S    
O8    H34   0.990991 S    
O5    H33   0.989157 S    
N19   O11   1.301126 A    
N18   O9    1.301160 A    
