data_mof_unit_38375.cif
_audit_creation_date              2012-12-10T19:00:16-0500
_audit_creation_method            fapswitch 2.2
_symmetry_space_group_name_H-M    P1
_symmetry_Int_Tables_number       1
_space_group_crystal_system       triclinic
_cell_length_a                    9.551053
_cell_length_b                    10.851273
_cell_length_c                    13.454468
_cell_angle_alpha                 90.920139
_cell_angle_beta                  71.338858
_cell_angle_gamma                 90.130129
_cell_volume                      1320.95026367

loop_
_atom_site_label
_atom_site_type_symbol
_atom_type_description
_atom_site_fract_x
_atom_site_fract_y
_atom_site_fract_z
_atom_type_partial_charge
C1    C     C_R   0.500527 0.737555 0.498621 0.883145
C2    C     C_R   0.430132 0.485062 0.980330 0.122596
C3    C     C_R   0.464474 0.454342 0.872318 -0.053215
C4    C     C_R   0.540023 0.467839 0.030003 -0.043208
C5    C     C_R   0.671937 0.402130 0.975249 -0.071597
C6    C     C_R   0.694219 0.357438 0.872819 0.299864
C7    C     C_R   0.591116 0.382648 0.823241 -0.174196
C8    C     C_R   0.525126 0.515614 0.131469 0.487984
C9    C     C_R   0.752993 0.417103 0.128194 0.522129
C10   C     C_R   0.368582 0.492642 0.816772 -0.209821
C11   C     C_R   0.625566 0.936749 0.497259 0.071277
C12   C     C_R   0.419716 0.495711 0.700673 0.804035
C13   C     C_R   0.503604 0.870472 0.490210 -0.332538
C14   C     C_R   0.386336 0.934784 0.471928 0.538342
C15   C     C_R   0.384635 0.063026 0.474333 0.582117
C16   C     C_R   0.501691 0.128860 0.492684 -0.340171
C17   C     C_R   0.624399 0.063684 0.498663 0.103085
C18   C     C_3   0.700710 0.071108 0.579756 -0.342167
C19   C     C_3   0.702703 0.931208 0.577774 -0.400452
C20   C     C_R   0.948018 0.405938 0.452253 0.095839
C21   C     C_R   0.900260 0.585181 0.556514 -0.033038
C22   C     C_R   0.049010 0.585019 0.556713 0.043361
C23   C     C_R   0.499753 0.262307 0.499693 0.881848
C24   C     C_R   0.096075 0.406951 0.451293 0.239914
C25   C     C_3   0.153265 0.375363 0.337487 0.374585
C26   C     C_3   0.994168 0.371213 0.338823 0.071361
C27   C     C_R   0.579738 0.498497 0.299066 0.916213
C28   C     C_R   0.778179 0.380777 0.024667 -0.170339
C29   C     C_R   0.624614 0.481764 0.183769 -0.259109
C30   C     C_R   0.227178 0.538235 0.873478 0.622253
C31   C     C_R   0.184692 0.550094 0.982018 -0.201782
C32   C     C_R   0.284801 0.525781 0.034973 -0.148242
Cu1   Cu    Cu3+1 0.359330 0.500020 0.500010 1.092412
Cu2   Cu    Cu3+1 0.640670 0.499980 0.499990 0.991583
H1    H     H_    0.812730 0.112195 0.548954 0.259757
H2    H     H_    0.629431 0.111485 0.655517 0.185930
H3    H     H_    0.815858 0.891806 0.545062 0.233088
H4    H     H_    0.633172 0.890095 0.652532 0.191763
H5    H     H_    0.824784 0.655528 0.600703 0.146527
H6    H     H_    0.084925 0.655248 0.601070 0.186507
H7    H     H_    0.217996 0.450413 0.288989 0.096991
H8    H     H_    0.969324 0.445705 0.291677 0.159897
H9    H     H_    0.879580 0.331508 0.985348 0.229237
H10   H     H_    0.242827 0.534020 0.119134 0.213489
H11   H     H_    0.074111 0.581390 0.025487 0.192160
H12   H     H_    0.609602 0.340955 0.746645 0.176975
N1    N     N_R   0.852320 0.499070 0.499340 -0.210434
N2    N     N_R   0.148230 0.499110 0.499340 -0.232023
O1    O     O_R   0.381190 0.680360 0.500000 -0.525392
O2    O     O_R   0.618780 0.680320 0.499990 -0.597242
O3    O     O_R   0.323230 0.500000 0.650990 -0.519404
O4    O     O_R   0.560820 0.499960 0.650980 -0.601286
O5    O     O_R   0.381220 0.319680 0.500010 -0.509312
O6    O     O_R   0.618810 0.319640 0.500000 -0.572994
O7    O     O_R   0.439180 0.500040 0.349020 -0.549796
O8    O     O_R   0.676770 0.500000 0.349010 -0.554326
F1    F     F_    0.852812 0.384111 0.174118 -0.655679
F2    F     F_    0.264231 0.121179 0.464682 -0.539601
F3    F     F_    0.224471 0.262464 0.318344 -0.534563
Br1   Br    Br    0.864939 0.262582 0.793973 -0.474147
Br2   Br    Br    0.926505 0.206410 0.317690 -0.265567
F4    F     F_    0.421265 0.601916 0.178320 -0.659739
F5    F     F_    0.129837 0.572658 0.824346 -0.644954
F6    F     F_    0.269490 0.874882 0.456875 -0.589929

loop_
_geom_bond_atom_site_label_1
_geom_bond_atom_site_label_2
_ccdc_geom_bond_type
Cu1   O7    S    
C2    C4    A    
C18   H2    S    
Cu2   O8    S    
C6    C7    A    
C19   H4    S    
C27   C29   S    
C5    C28   A    
C25   F3    S    
C1    O2    A    
C10   C30   A    
C28   H9    S    
C22   N2    A    
C31   C32   A    
C21   H5    S    
C9    C29   A    
C4    C8    A    
C14   F6    S    
C21   C22   A    
C27   O8    A    
C2    C3    A    
C32   H10   S    
C22   H6    S    
C3    C10   A    
C13   C14   A    
C11   C13   A    
Cu2   O6    S    
C11   C19   S    
C30   C31   A    
C20   C26   S    
C8    C29   A    
C10   C12   S    
C18   H1    S    
C2    C32   A    
C12   O4    A    
C26   Br2   S    
Cu1   Cu2   S    
C23   O5    A    
C16   C23   S    
C9    F1    S    
Cu1   O5    S    
C5    C6    A    
C15   F2    S    
C27   O7    A    
Cu2   O2    S    
C20   N1    A    
C1    C13   S    
Cu1   O1    S    
C15   C16   A    
C24   N2    A    
C7    H12   S    
C6    Br1   S    
C12   O3    A    
C16   C17   A    
C24   C25   S    
C26   H8    S    
C23   O6    A    
C17   C18   S    
C18   C19   S    
C31   H11   S    
C25   H7    S    
Cu2   O4    S    
Cu1   N2    S    
C14   C15   A    
C11   C17   A    
Cu2   N1    S    
C19   H3    S    
C3    C7    A    
C25   C26   S    
C30   F5    S    
C1    O1    A    
Cu1   O3    S    
C20   C24   A    
C9    C28   A    
C8    F4    S    
C4    C5    A    
C21   N1    A    
