data_mof_unit_37859.cif
_audit_creation_date              2012-12-10T17:48:23-0500
_audit_creation_method            fapswitch 2.2
_symmetry_space_group_name_H-M    P1
_symmetry_Int_Tables_number       1
_space_group_crystal_system       triclinic
_cell_length_a                    13.889986
_cell_length_b                    14.739432
_cell_length_c                    14.635318
_cell_angle_alpha                 114.853242
_cell_angle_beta                  106.487564
_cell_angle_gamma                 73.309847
_cell_volume                      2557.99956681

loop_
_atom_site_label
_atom_site_type_symbol
_atom_type_description
_atom_site_fract_x
_atom_site_fract_y
_atom_site_fract_z
_atom_type_partial_charge
C1    C     C_R   0.516253 0.118295 0.688569 0.795807
C2    C     C_R   0.432473 0.511527 0.872161 0.373487
C3    C     C_R   0.548042 0.385506 0.105090 0.433809
C4    C     C_R   0.425774 0.615626 0.896209 0.397902
C5    C     C_R   0.304025 0.316239 0.360700 0.354205
C6    C     C_R   0.687482 0.693692 0.654965 0.354027
C7    C     C_R   0.337468 0.229451 0.385970 -0.157444
C8    C     C_R   0.655814 0.778734 0.627069 -0.134187
C9    C     C_R   0.499375 0.275231 0.469858 0.718681
C10   C     C_R   0.505743 0.718778 0.519267 0.692853
C11   C     C_R   0.463589 0.372393 0.460858 -0.145434
C12   C     C_R   0.483729 0.881754 0.311549 0.814811
C13   C     C_R   0.543084 0.621777 0.529672 -0.161542
C14   C     C_R   0.370211 0.385126 0.393560 -0.080060
C15   C     C_R   0.631395 0.614338 0.605625 -0.077098
C16   C     C_R   0.686394 0.987229 0.503392 0.829770
C17   C     C_R   0.313559 0.012563 0.496184 0.812490
C18   C     C_R   0.519354 0.454019 0.511107 -0.062834
C19   C     C_R   0.492001 0.536270 0.474830 -0.043950
C20   C     C_R   0.414587 0.530009 0.385332 0.573030
C21   C     C_R   0.596724 0.458385 0.599942 0.490168
C22   C     C_R   0.348319 0.460996 0.353537 -0.276765
C23   C     C_R   0.504626 0.359823 0.923778 0.031046
C24   C     C_R   0.657137 0.533272 0.639302 -0.290901
C25   C     C_1   0.209211 0.019143 0.494885 -0.198741
C26   C     C_1   0.790290 0.979267 0.501776 -0.180170
C27   C     C_2   0.013640 0.036648 0.492467 0.379478
C28   C     C_2   0.984508 0.959180 0.497075 0.376086
C29   C     C_1   0.878029 0.971014 0.499626 -0.085873
C30   C     C_1   0.120848 0.026224 0.493758 -0.088727
C31   C     C_R   0.520721 0.185132 0.797536 -0.189450
C32   C     C_R   0.473975 0.814965 0.202520 -0.178871
C33   C     C_R   0.537437 0.215561 0.976803 -0.232131
C34   C     C_R   0.479185 0.640509 0.077021 0.027622
C35   C     C_R   0.447898 0.783278 0.022133 -0.235377
C36   C     C_R   0.530705 0.148023 0.874828 0.418482
C37   C     C_R   0.461956 0.851101 0.124195 0.423768
C38   C     C_R   0.510912 0.289799 0.823657 -0.219456
C39   C     C_R   0.478293 0.711457 0.177393 -0.249581
C40   C     C_3   0.014241 0.792885 0.494079 0.079559
C41   C     C_3   0.097635 0.699959 0.495016 -0.827004
C42   C     C_3   0.981914 0.198110 0.482570 0.070082
C43   C     C_3   0.896911 0.286763 0.471178 -0.822806
C44   C     C_3   0.135908 0.378918 0.367340 0.066226
C45   C     C_R   0.527668 0.320628 0.002333 -0.104432
C46   C     C_3   0.031061 0.406344 0.306052 -0.815967
C47   C     C_3   0.751267 0.749012 0.825961 0.055054
C48   C     C_3   0.842628 0.731492 0.907456 -0.786759
C49   C     C_3   0.318959 0.604648 0.264994 -0.248378
C50   C     C_3   0.693764 0.374189 0.711645 -0.246899
C51   C     C_3   0.675486 0.312991 0.207156 -0.326623
C52   C     C_3   0.440793 0.633836 0.753858 -0.270097
C53   C     C_3   0.383223 0.009168 0.120166 0.068577
C54   C     C_3   0.403309 0.112577 0.139770 -0.737256
C55   C     C_3   0.451542 0.019787 0.842604 0.097178
C56   C     C_R   0.452009 0.679417 0.997976 -0.062142
C57   C     C_3   0.470469 0.910390 0.835502 -0.828667
C58   C     C_3   0.687133 0.555428 0.229148 0.042864
C59   C     C_3   0.737803 0.607832 0.339423 -0.762832
C60   C     C_3   0.289833 0.449282 0.771831 0.099372
C61   C     C_3   0.244550 0.385183 0.663530 -0.799169
C62   C     C_3   0.340559 0.767588 0.540513 -0.328861
C63   C     C_3   0.652931 0.214266 0.419836 -0.316112
C64   C     C_R   0.480702 0.467257 0.948225 -0.166334
C65   C     C_R   0.501788 0.533047 0.052984 -0.189429
C66   C     C_R   0.546552 0.488344 0.129285 0.407050
Cu1   Cu    Cu3+1 0.526370 0.916390 0.524860 0.979711
Cu2   Cu    Cu3+1 0.473630 0.083610 0.475140 0.982247
H1    H     H_    0.478358 0.687886 0.237505 0.260897
H2    H     H_    0.976323 0.816995 0.560454 0.162653
H3    H     H_    0.153749 0.719110 0.568199 0.252798
H4    H     H_    0.063035 0.637533 0.487859 0.207990
H5    H     H_    0.137507 0.673252 0.429776 0.239743
H6    H     H_    0.020461 0.166667 0.415405 0.150882
H7    H     H_    0.037180 0.227862 0.554698 0.149304
H8    H     H_    0.854367 0.319008 0.535212 0.253633
H9    H     H_    0.930218 0.347348 0.472207 0.205653
H10   H     H_    0.843333 0.260558 0.397172 0.231620
H11   H     H_    0.156369 0.450495 0.429843 0.144829
H12   H     H_    0.513555 0.315217 0.765495 0.250325
H13   H     H_    0.130678 0.326291 0.401738 0.137025
H14   H     H_    0.007444 0.336552 0.243689 0.249585
H15   H     H_    0.973776 0.443061 0.357081 0.198586
H16   H     H_    0.033417 0.460238 0.272145 0.246383
H17   H     H_    0.684494 0.730162 0.837694 0.134731
H18   H     H_    0.734292 0.831045 0.836642 0.173648
H19   H     H_    0.910402 0.751000 0.899140 0.252263
H20   H     H_    0.824862 0.780262 0.984866 0.205384
H21   H     H_    0.860531 0.650363 0.899503 0.238631
H22   H     H_    0.256041 0.632845 0.309087 0.144004
H23   H     H_    0.552964 0.184548 0.035858 0.187879
H24   H     H_    0.304492 0.537491 0.193798 0.143394
H25   H     H_    0.319213 0.666856 0.241504 0.182638
H26   H     H_    0.711298 0.436796 0.786224 0.129521
H27   H     H_    0.754834 0.349457 0.665954 0.164994
H28   H     H_    0.692557 0.308127 0.728899 0.191763
H29   H     H_    0.711232 0.373755 0.272600 0.199398
H30   H     H_    0.715797 0.284396 0.141456 0.135466
H31   H     H_    0.687183 0.248401 0.231811 0.170712
H32   H     H_    0.431406 0.559103 0.692088 0.234239
H33   H     H_    0.522747 0.634483 0.791349 0.144000
H34   H     H_    0.436814 0.811361 0.961782 0.176991
H35   H     H_    0.416510 0.691413 0.717678 0.153301
H36   H     H_    0.327487 0.020567 0.167539 0.149744
H37   H     H_    0.349185 0.975405 0.037517 0.128707
H38   H     H_    0.455852 0.103268 0.090489 0.233595
H39   H     H_    0.330306 0.163508 0.122435 0.213600
H40   H     H_    0.439687 0.148054 0.220961 0.249283
H41   H     H_    0.399375 0.026237 0.771205 0.145790
H42   H     H_    0.413304 0.069793 0.909242 0.125304
H43   H     H_    0.521346 0.902462 0.906607 0.252352
H44   H     H_    0.396653 0.889210 0.825785 0.205040
H45   H     H_    0.283750 0.459995 0.291248 0.181750
H46   H     H_    0.507441 0.857910 0.769013 0.234240
H47   H     H_    0.680305 0.603900 0.185507 0.153376
H48   H     H_    0.737598 0.480822 0.195511 0.120814
H49   H     H_    0.746528 0.560924 0.385103 0.246635
H50   H     H_    0.814597 0.618100 0.341353 0.185789
H51   H     H_    0.690339 0.683726 0.374236 0.267497
H52   H     H_    0.240376 0.526590 0.793631 0.162244
H53   H     H_    0.290033 0.412438 0.824592 0.134518
H54   H     H_    0.291372 0.306911 0.640390 0.260589
H55   H     H_    0.165166 0.380587 0.660282 0.188387
H56   H     H_    0.718422 0.534960 0.704493 0.185164
H57   H     H_    0.243181 0.420093 0.608959 0.240843
H58   H     H_    0.262856 0.800178 0.507830 0.245212
H59   H     H_    0.363907 0.825381 0.617174 0.158938
H60   H     H_    0.335505 0.697464 0.548351 0.128860
H61   H     H_    0.655979 0.282454 0.406995 0.153088
H62   H     H_    0.617179 0.158712 0.347641 0.166693
H63   H     H_    0.732654 0.176449 0.440678 0.239570
H64   H     H_    0.700970 0.837723 0.660879 0.179209
H65   H     H_    0.287202 0.175974 0.360102 0.170816
H66   H     H_    0.958043 0.770108 0.420978 0.146089
N1    N     N_R   0.433980 0.209250 0.437830 -0.249382
N2    N     N_R   0.566020 0.790750 0.562170 -0.253780
O1    O     O_R   0.534760 0.019630 0.662610 -0.543660
O2    O     O_3   0.940005 0.122991 0.486237 -0.611650
O3    O     O_3   0.208084 0.331831 0.301701 -0.581010
O4    O     O_3   0.775016 0.686695 0.727961 -0.577791
O5    O     O_3   0.415569 0.581835 0.324710 -0.512266
O6    O     O_3   0.596057 0.403164 0.657395 -0.556703
O7    O     O_3   0.569165 0.348835 0.183205 -0.550649
O8    O     O_3   0.376488 0.659050 0.823429 -0.587012
O9    O     O_3   0.476572 0.948072 0.147658 -0.571534
O10   O     O_3   0.545991 0.044868 0.853636 -0.573181
O11   O     O_3   0.590025 0.542299 0.228537 -0.534559
O12   O     O_R   0.465240 0.980370 0.337390 -0.546899
O13   O     O_3   0.389946 0.455124 0.773547 -0.570876
O14   O     O_3   0.406462 0.745714 0.473064 -0.527922
O15   O     O_3   0.601950 0.242032 0.501270 -0.531485
O16   O     O_R   0.490220 0.160840 0.620610 -0.563822
O17   O     O_R   0.509780 0.839160 0.379390 -0.561116
O18   O     O_R   0.663260 0.919400 0.523940 -0.602584
O19   O     O_R   0.336740 0.080600 0.476060 -0.608371
O20   O     O_R   0.618720 0.060610 0.481950 -0.514977
O21   O     O_R   0.381280 0.939390 0.518050 -0.529358
O22   O     O_3   0.057871 0.872218 0.501778 -0.615094

loop_
_geom_bond_atom_site_label_1
_geom_bond_atom_site_label_2
_ccdc_geom_bond_type
C51   H29   S    
C52   H35   S    
C34   C56   A    
C23   C45   A    
C8    N2    A    
C18   C21   A    
C33   C45   A    
C19   C20   A    
C24   H56   S    
C12   O17   A    
Cu2   O19   S    
C50   H28   S    
C11   C18   A    
C53   C54   S    
C43   H10   S    
C7    N1    A    
C42   H7    S    
C52   O8    S    
C40   H2    S    
C54   H39   S    
C60   C61   S    
Cu1   O18   S    
C47   H17   S    
C40   O22   S    
C28   C29   S    
C35   C37   A    
C10   N2    A    
C21   O6    S    
C7    H65   S    
C33   H23   S    
C62   H59   S    
C11   C14   A    
C50   H27   S    
C32   C39   A    
C57   H44   S    
C42   O2    S    
C53   H36   S    
C1    C31   S    
C33   C36   A    
C1    O16   A    
C18   C19   A    
C63   H62   S    
C6    C15   A    
C46   H14   S    
C22   H45   S    
C9    O15   S    
C2    C64   A    
C49   O5    S    
C47   O4    S    
C16   O20   A    
C48   H20   S    
C63   H63   S    
C17   O21   A    
C49   H22   S    
Cu2   O12   S    
C41   H3    S    
C35   H34   S    
C51   H30   S    
Cu1   O17   S    
C59   H49   S    
C4    C56   A    
C27   C30   S    
C58   H48   S    
C34   C65   A    
C53   O9    S    
C44   C46   S    
C5    O3    S    
C44   H11   S    
C16   C26   S    
C52   H33   S    
C42   H6    S    
C27   O2    S    
C13   C19   A    
C34   C39   A    
C47   H18   S    
C23   C64   A    
C3    O7    S    
C44   H13   S    
C5    C14   A    
C5    C7    A    
C54   H38   S    
C58   O11   S    
C50   H26   S    
C55   O10   S    
C6    C8    A    
C37   O9    S    
C58   C59   S    
C40   H66   S    
C3    C45   A    
Cu1   Cu2   S    
C61   H54   S    
C2    C4    A    
C8    H64   S    
Cu2   O16   S    
C51   H31   S    
C47   C48   S    
C28   O22   S    
C39   H1    S    
C48   H19   S    
Cu1   O21   S    
C32   C37   A    
C9    C11   A    
C63   O15   S    
C66   O11   S    
C41   H4    S    
C46   H16   S    
C9    N1    A    
C36   O10   S    
C40   C41   S    
C20   C22   A    
C44   O3    S    
C48   H21   S    
C55   C57   S    
C55   H42   S    
C16   O18   A    
C58   H47   S    
C3    C66   A    
C43   H9    S    
C42   C43   S    
C49   H24   S    
C17   O19   A    
C1    O1    A    
C62   H58   S    
C25   C30   T    
C15   C24   A    
C59   H51   S    
C62   O14   S    
C35   C56   A    
C20   O5    S    
Cu2   N1    S    
Cu2   O20   S    
C10   C13   A    
C12   C32   S    
C4    O8    S    
C57   H46   S    
C51   O7    S    
C59   H50   S    
C23   C38   A    
C31   C38   A    
C54   H40   S    
C61   H55   S    
C17   C25   S    
C64   C65   A    
C14   C22   A    
C13   C15   A    
Cu1   N2    S    
C10   O14   S    
C62   H60   S    
C12   O12   A    
C57   H43   S    
C38   H12   S    
C2    O13   S    
C52   H32   S    
C60   H52   S    
C60   O13   S    
C63   H61   S    
C6    O4    S    
C60   H53   S    
Cu1   O1    S    
C41   H5    S    
C46   H15   S    
C53   H37   S    
C26   C29   T    
C65   C66   A    
C21   C24   A    
C27   C28   D    
C31   C36   A    
C43   H8    S    
C61   H57   S    
C49   H25   S    
C55   H41   S    
C50   O6    S    
