data_mof_unit_59898.cif
_audit_creation_date              2012-12-10T17:27:52-0500
_audit_creation_method            fapswitch 2.2
_symmetry_space_group_name_H-M    P1
_symmetry_Int_Tables_number       1
_space_group_crystal_system       triclinic
_cell_length_a                    10.668239
_cell_length_b                    11.986211
_cell_length_c                    12.897267
_cell_angle_alpha                 93.299347
_cell_angle_beta                  90.418538
_cell_angle_gamma                 87.187331
_cell_volume                      1644.46261242

loop_
_atom_site_label
_atom_site_type_symbol
_atom_type_description
_atom_site_fract_x
_atom_site_fract_y
_atom_site_fract_z
_atom_type_partial_charge
C1    C     C_R   0.493868 0.521716 0.700334 0.857258
C2    C     C_R   0.937281 0.464948 0.597367 0.042003
C3    C     C_R   0.871528 0.505674 0.511027 -0.049233
C4    C     C_R   0.932341 0.547292 0.427532 -0.168996
C5    C     C_R   0.060742 0.544806 0.426378 -0.188018
C6    C     C_R   0.128001 0.497636 0.507177 -0.048512
C7    C     C_R   0.500433 0.464045 0.188182 -0.134689
C8    C     C_R   0.484578 0.533746 0.811563 -0.077971
C9    C     C_R   0.486640 0.646918 0.970456 -0.148861
C10   C     C_R   0.486387 0.639042 0.863361 -0.170406
C11   C     C_R   0.478786 0.436697 0.866286 -0.062224
C12   C     C_R   0.739482 0.501657 0.503507 0.872963
C13   C     C_R   0.489230 0.441566 0.973330 0.087055
C14   C     C_R   0.489958 0.549342 0.025206 0.147594
C15   C     C_R   0.495259 0.559277 0.131596 -0.250231
C16   C     C_R   0.503753 0.357365 0.138602 -0.241103
C17   C     C_R   0.500736 0.343853 0.030927 0.486833
C18   C     C_R   0.380928 0.953969 0.406119 -0.275367
C19   C     C_R   0.392154 0.837996 0.414123 0.037955
C20   C     C_R   0.553515 0.857637 0.540361 0.005906
C21   C     C_R   0.548929 0.975476 0.533396 0.004211
C22   C     C_R   0.458751 0.023539 0.466135 0.080528
C23   C     C_R   0.501671 0.477962 0.299545 0.924932
C24   C     C_R   0.448101 0.140573 0.460320 -0.016453
C25   C     C_R   0.610860 0.163871 0.584461 0.031102
C26   C     C_R   0.628350 0.047260 0.592175 -0.136004
C27   C     C_R   0.260327 0.499094 0.501579 0.861286
C28   C     C_R   0.876030 0.438131 0.688708 -0.354456
C29   C     C_R   0.943937 0.396491 0.772768 0.339944
C30   C     C_R   0.073785 0.372027 0.762042 0.395199
C31   C     C_R   0.135573 0.407915 0.675707 -0.346779
C32   C     C_R   0.068406 0.456194 0.593422 0.038039
H1    H     H_    0.880163 0.579847 0.362437 0.163594
H2    H     H_    0.489092 0.714638 0.821432 0.170599
H3    H     H_    0.467363 0.358126 0.824114 0.228326
H4    H     H_    0.379956 0.178487 0.408746 0.136779
H5    H     H_    0.670210 0.220284 0.628482 0.174963
H6    H     H_    0.311904 0.988959 0.353498 0.158447
H7    H     H_    0.332409 0.784297 0.367623 0.135189
H8    H     H_    0.615946 0.816772 0.594064 0.170024
H9    H     H_    0.775579 0.453036 0.696572 0.193786
H10   H     H_    0.236521 0.396964 0.674126 0.207121
H11   H     H_    0.108078 0.577266 0.361177 0.155918
H12   H     H_    0.494852 0.642144 0.170252 0.173476
H13   H     H_    0.509250 0.284020 0.184085 0.201669
H14   H     H_    0.487802 0.728939 0.010466 0.149564
N1    N     N_R   0.523130 0.207800 0.519340 -0.117790
N2    N     N_R   0.476870 0.792180 0.480660 -0.114108
O1    O     O_R   0.506170 0.421690 0.658830 -0.623349
O2    O     O_R   0.491330 0.609320 0.646410 -0.625190
O3    O     O_R   0.690660 0.406170 0.506210 -0.616585
O4    O     O_R   0.675810 0.593790 0.493790 -0.611027
O5    O     O_R   0.508670 0.390680 0.353590 -0.620752
O6    O     O_R   0.493830 0.578310 0.341170 -0.631235
O7    O     O_R   0.324190 0.406210 0.506210 -0.621253
O8    O     O_R   0.309340 0.593830 0.493790 -0.618798
Zn1   Zn    Zn3+2 0.509910 0.374720 0.508290 0.980384
Zn2   Zn    Zn3+2 0.490090 0.625280 0.491710 0.963631
S1    S     S_3+6 0.515534 0.203045 0.978053 0.083209
O9    O     O_2   0.562769 0.192531 0.868364 -0.243670
O10   O     O_2   0.605394 0.137748 0.044649 -0.270703
O11   O     O_3   0.374721 0.146786 0.982962 -0.522247
H15   H     H_    0.389043 0.068369 0.955420 0.383607
C33   C     C_2   0.732962 0.005126 0.658193 0.905328
O12   O     O_2   0.757987 0.056268 0.739922 -0.516635
O13   O     O_R   0.807218 0.910650 0.624897 -0.815424
H16   H     H_    0.876322 0.891537 0.676228 0.358597
S2    S     S_3+6 0.863633 0.385809 0.890983 0.084503
O14   O     O_2   0.805444 0.274290 0.889908 -0.140835
O15   O     O_2   0.949392 0.397599 0.983457 -0.228835
O16   O     O_3   0.750293 0.487750 0.902149 -0.588511
H17   H     H_    0.794826 0.558405 0.903383 0.353838
S3    S     S_3+6 0.162001 0.291832 0.850113 0.080081
O17   O     O_2   0.273208 0.234506 0.795124 -0.286175
O18   O     O_2   0.206870 0.367982 0.937829 -0.296514
O19   O     O_3   0.073749 0.193901 0.897094 -0.451539
H18   H     H_    0.117947 0.170448 0.960634 0.405037

loop_
_geom_bond_atom_site_label_1
_geom_bond_atom_site_label_2
_ccdc_geom_bond_type
C6    C32   A    
C21   C26   A    
C31   H10   S    
C1    C8    S    
S3    O17   D    
C27   O8    A    
O11   H15   S    
C19   H7    S    
C28   C29   A    
C15   H12   S    
C8    C11   A    
C5    C6    A    
C20   H8    S    
C27   O7    A    
C28   H9    S    
O1    Zn1   S    
C2    C32   A    
C18   C19   A    
C26   C33   S    
C3    C12   S    
C25   H5    S    
C31   C32   A    
C16   C17   A    
O3    Zn1   S    
C9    C10   A    
C25   N1    A    
C7    C15   A    
O13   H16   S    
C5    H11   S    
S1    O9    D    
C13   C14   A    
S3    O18   D    
C12   O4    A    
C23   O5    A    
S1    O10   D    
O2    Zn2   S    
O19   H18   S    
C30   S3    S    
O5    Zn1   S    
C19   N2    A    
S2    O14   D    
C25   C26   A    
C33   O13   S    
C9    C14   A    
C29   C30   A    
C1    O2    A    
N1    Zn1   S    
C29   S2    S    
C6    C27   S    
C10   H2    S    
C24   H4    S    
C20   N2    A    
O4    Zn2   S    
C17   S1    S    
S2    O15   D    
C7    C16   A    
O7    Zn1   S    
S3    O19   S    
C22   C24   A    
C3    C4    A    
C12   O3    A    
C23   O6    A    
O6    Zn2   S    
C4    H1    S    
S1    O11   S    
C18   C22   A    
C24   N1    A    
C4    C5    A    
C16   H13   S    
N2    Zn2   S    
C13   C17   A    
C33   O12   D    
C11   H3    S    
C2    C3    A    
C18   H6    S    
O16   H17   S    
C11   C13   A    
C30   C31   A    
S2    O16   S    
C7    C23   S    
O8    Zn2   S    
C9    H14   S    
C20   C21   A    
C8    C10   A    
C14   C15   A    
C2    C28   A    
C21   C22   A    
C1    O1    A    
