data_mof_unit_9923.cif
_audit_creation_date              2012-12-11T15:32:09-0500
_audit_creation_method            fapswitch 2.2
_symmetry_space_group_name_H-M    P1
_symmetry_Int_Tables_number       1
_space_group_crystal_system       triclinic
_cell_length_a                    13.579941
_cell_length_b                    13.587427
_cell_length_c                    27.658816
_cell_angle_alpha                 90.49014
_cell_angle_beta                  90.205246
_cell_angle_gamma                 120.039366
_cell_volume                      4417.66823066

loop_
_atom_site_label
_atom_site_type_symbol
_atom_type_description
_atom_site_fract_x
_atom_site_fract_y
_atom_site_fract_z
_atom_type_partial_charge
C1    C     C_R   0.619485 0.898184 0.431349 0.538986
C2    C     C_R   0.256296 0.932868 0.259226 -0.122794
C3    C     C_R   0.239190 0.922510 0.209075 -0.117880
C4    C     C_R   0.599682 0.218500 0.431321 0.549215
C5    C     C_R   0.072152 0.736854 0.219583 -0.121280
C6    C     C_R   0.089081 0.747300 0.269662 -0.120659
C7    C     C_R   0.181195 0.845326 0.289623 0.021590
C8    C     C_R   0.147245 0.824174 0.189151 0.025462
C9    C     C_1   0.125875 0.812445 0.137812 -0.063552
C10   C     C_1   0.204278 0.853198 0.340778 -0.070128
C11   C     C_1   0.098034 0.794680 0.095776 -0.010631
C12   C     C_R   0.628847 0.235491 0.208567 -0.106470
C13   C     C_1   0.635162 0.864728 0.384037 0.001810
C14   C     C_R   0.553286 0.754493 0.264068 0.269872
C15   C     C_R   0.562111 0.740756 0.213792 0.235065
C16   C     C_R   0.279517 0.878746 0.430529 0.547383
C17   C     C_R   0.764546 0.880315 0.218263 0.231817
C18   C     C_R   0.756136 0.889300 0.268398 -0.162516
C19   C     C_R   0.651611 0.826157 0.291399 -0.045481
C20   C     C_R   0.666788 0.808242 0.190757 0.009613
C21   C     C_1   0.677285 0.797836 0.139323 0.028806
C22   C     C_1   0.643996 0.843994 0.342356 -0.009371
C23   C     C_R   0.617920 0.217921 0.258463 -0.106338
C24   C     C_1   0.693458 0.787380 0.097260 0.002319
C25   C     C_R   0.618093 0.244994 0.620932 0.057431
C26   C     C_R   0.726135 0.319222 0.640622 0.264170
C27   C     C_R   0.737307 0.330639 0.691277 -0.107811
C28   C     C_R   0.621125 0.900203 0.568749 0.557405
C29   C     C_R   0.644576 0.262262 0.721143 0.000209
C30   C     C_R   0.539926 0.184033 0.700489 -0.153463
C31   C     C_R   0.526389 0.176922 0.651021 -0.175132
C32   C     C_R   0.562939 0.281195 0.798120 -0.125988
C33   C     C_R   0.577177 0.318978 0.845578 -0.133151
C34   C     C_R   0.664571 0.310952 0.290711 0.039244
C35   C     C_R   0.768764 0.348213 0.846020 -0.133369
C36   C     C_R   0.754079 0.309332 0.798475 -0.110795
C37   C     C_R   0.653027 0.280807 0.773571 0.047611
C38   C     C_R   0.682345 0.358837 0.868871 0.022685
C39   C     C_R   0.249263 0.873081 0.619117 -0.020811
C40   C     C_R   0.599347 0.219210 0.569628 0.577446
C41   C     C_R   0.174220 0.907585 0.636030 -0.160073
C42   C     C_R   0.151458 0.902433 0.685422 -0.173307
C43   C     C_R   0.206410 0.865997 0.717780 0.019123
C44   C     C_R   0.289041 0.840850 0.700920 0.252158
C45   C     C_R   0.686695 0.346255 0.190713 0.036831
C46   C     C_R   0.307431 0.841746 0.651753 -0.107847
C47   C     C_R   0.140669 0.736055 0.786706 -0.078693
C48   C     C_R   0.107082 0.711218 0.834214 -0.129023
C49   C     C_R   0.128743 0.898708 0.845006 -0.130638
C50   C     C_R   0.164805 0.924446 0.797299 -0.140208
C51   C     C_R   0.170182 0.842677 0.768040 0.046165
C52   C     C_R   0.282140 0.882489 0.568780 0.533777
C53   C     C_R   0.098787 0.791379 0.863552 0.023694
C54   C     C_R   0.641592 0.858655 0.614488 -0.020805
C55   C     C_R   0.548417 0.767888 0.637282 -0.176471
C56   C     C_1   0.694234 0.366120 0.139509 -0.064880
C57   C     C_R   0.554543 0.743685 0.685863 0.265032
C58   C     C_R   0.655929 0.812600 0.711758 0.016060
C59   C     C_R   0.752949 0.893985 0.687607 -0.115250
C60   C     C_R   0.747151 0.916794 0.638875 0.256869
C61   C     C_R   0.705729 0.897906 0.795097 0.260631
C62   C     C_R   0.714908 0.884102 0.844948 -0.116420
C63   C     C_R   0.634108 0.681036 0.832561 -0.147781
C64   C     C_1   0.630925 0.264694 0.383777 -0.010149
C65   C     C_R   0.625235 0.693614 0.783436 -0.126869
C66   C     C_R   0.661334 0.801307 0.764326 0.069098
C67   C     C_1   0.649502 0.290839 0.341867 -0.056365
C68   C     C_R   0.682113 0.776478 0.863335 -0.016634
C69   C     C_R   0.049618 0.761342 0.048173 0.546498
C70   C     C_R   0.714364 0.435946 0.049734 0.544473
C71   C     C_R   0.723559 0.770886 0.049494 0.540169
C72   C     C_R   0.043340 0.755307 0.910365 0.543533
C73   C     C_R   0.707135 0.427208 0.912922 0.540222
C74   C     C_R   0.717461 0.764660 0.911706 0.545353
C75   C     C_R   0.722716 0.421758 0.272858 -0.108767
C76   C     C_R   0.733577 0.439318 0.222943 -0.112662
C77   C     C_3   0.433944 0.553760 0.195370 0.028235
C78   C     C_1   0.701820 0.391344 0.097479 -0.019645
C79   C     C_3   0.484538 0.509661 0.157297 -0.274542
C80   C     C_3   0.438799 0.382338 0.162616 -0.473874
C81   C     C_3   0.935648 0.897576 0.201335 -0.103702
C82   C     C_3   0.916616 0.387889 0.621813 0.021511
C83   C     C_3   0.008185 0.507742 0.637752 -0.268943
C84   C     C_3   0.118696 0.511130 0.651657 -0.479412
C85   C     C_3   0.442587 0.902578 0.750347 -0.060056
C86   C     C_3   0.841370 0.088296 0.790609 -0.136995
C87   C     C_3   0.410977 0.557234 0.688271 -0.127564
C88   C     C_3   0.918315 0.967238 0.605795 -0.123214
C89   C     C_1   0.232044 0.862309 0.382759 -0.015512
C90   C     C_3   0.390831 0.755191 0.281932 -0.084803
Cr1   Cr    Cr6+3 0.417720 0.831920 0.499820 1.018932
Cr2   Cr    Cr6+3 0.668190 0.085770 0.500360 1.057541
Cr3   Cr    Cr6+3 0.414060 0.082260 0.499840 1.021254
Cr4   Cr    Cr6+3 0.908000 0.821090 0.979770 1.026207
Cr5   Cr    Cr6+3 0.912420 0.571130 0.979880 1.025704
Cr6   Cr    Cr6+3 0.657970 0.566940 0.980940 1.018225
H1    H     H_    0.758614 0.494260 0.297387 0.108035
H2    H     H_    0.444174 0.115001 0.636118 0.144879
H3    H     H_    0.132026 0.935789 0.611097 0.110083
H4    H     H_    0.141730 0.670976 0.764146 0.145202
H5    H     H_    0.082311 0.626963 0.847123 0.129398
H6    H     H_    0.088555 0.923046 0.698201 0.109778
H7    H     H_    0.187700 0.007235 0.783154 0.098460
H8    H     H_    0.121756 0.961320 0.866931 0.122920
H9    H     H_    0.369705 0.820273 0.639178 0.145810
H10   H     H_    0.467470 0.721499 0.618601 0.136955
H11   H     H_    0.591334 0.163029 0.184019 0.113607
H12   H     H_    0.831111 0.947494 0.289202 0.142895
H13   H     H_    0.749594 0.956834 0.869278 0.119477
H14   H     H_    0.594058 0.619467 0.760054 0.136685
H15   H     H_    0.610689 0.597409 0.845900 0.143552
H16   H     H_    0.832526 0.943315 0.707144 0.136315
H17   H     H_    0.572234 0.131799 0.271910 0.103248
H18   H     H_    0.328729 0.008493 0.274268 0.110663
H19   H     H_    0.297495 0.990729 0.185965 0.111878
H20   H     H_    0.000373 0.660679 0.204546 0.111494
H21   H     H_    0.031211 0.678607 0.292693 0.114489
H22   H     H_    0.339688 0.503286 0.192547 0.167618
H23   H     H_    0.484237 0.260553 0.779771 0.100611
H24   H     H_    0.456643 0.538634 0.232309 0.156806
H25   H     H_    0.462872 0.526036 0.120561 0.191209
H26   H     H_    0.578674 0.555226 0.161287 0.154682
H27   H     H_    0.464496 0.364656 0.198214 0.158925
H28   H     H_    0.473658 0.352088 0.133557 0.167481
H29   H     H_    0.344543 0.334688 0.159451 0.152056
H30   H     H_    0.893745 0.810024 0.185553 0.108309
H31   H     H_    0.958000 0.896465 0.239998 0.122356
H32   H     H_    0.016216 0.949375 0.181608 0.158288
H33   H     H_    0.946349 0.364453 0.588602 0.163965
H34   H     H_    0.508693 0.325072 0.862619 0.129408
H35   H     H_    0.906614 0.324352 0.649557 0.128088
H36   H     H_    0.025118 0.567920 0.607722 0.184958
H37   H     H_    0.978194 0.536495 0.669232 0.158927
H38   H     H_    0.104199 0.452813 0.682141 0.142057
H39   H     H_    0.183091 0.598593 0.663207 0.186022
H40   H     H_    0.152367 0.485980 0.620270 0.144208
H41   H     H_    0.420019 0.959805 0.770405 0.105280
H42   H     H_    0.504063 0.949303 0.721055 0.143239
H43   H     H_    0.485176 0.874335 0.776456 0.189155
H44   H     H_    0.903995 0.058045 0.791879 0.101104
H45   H     H_    0.816855 0.394607 0.707283 0.097565
H46   H     H_    0.837486 0.124910 0.826120 0.122913
H47   H     H_    0.873055 0.157590 0.763805 0.137406
H48   H     H_    0.477080 0.534347 0.679404 0.100859
H49   H     H_    0.360876 0.551386 0.655487 0.115176
H50   H     H_    0.351461 0.493174 0.714067 0.138892
H51   H     H_    0.878340 0.890482 0.581820 0.118138
H52   H     H_    0.953147 0.950133 0.639097 0.095112
H53   H     H_    0.990907 0.035614 0.585996 0.141308
H54   H     H_    0.371761 0.762254 0.243372 0.159723
H55   H     H_    0.439164 0.841190 0.299026 0.107247
H56   H     H_    0.823721 0.307437 0.780448 0.094401
H57   H     H_    0.308411 0.708104 0.300894 0.153696
H58   H     H_    0.850269 0.377077 0.863584 0.120867
H59   H     H_    0.467594 0.129306 0.722564 0.109097
H60   H     H_    0.777377 0.525431 0.209448 0.095658
O1    O     O_R   0.302900 0.805360 0.446400 -0.500434
O2    O     O_R   0.638120 0.455970 0.034270 -0.513668
O3    O     O_R   0.667540 0.672320 0.030160 -0.500482
O4    O     O_R   0.522090 0.841370 0.450730 -0.488398
O5    O     O_R   0.814460 0.840990 0.926980 -0.517089
O6    O     O_R   0.001710 0.811400 0.930110 -0.502819
O7    O     O_R   0.023410 0.659800 0.926210 -0.520655
O8    O     O_R   0.806940 0.473170 0.931090 -0.504462
O9    O     O_R   0.633420 0.451310 0.927930 -0.524605
O10   O     O_R   0.663190 0.668000 0.931580 -0.497971
O11   O     O_3   0.826130 0.653050 0.980200 -0.247592
O12   O     O_R   0.657980 0.180990 0.549630 -0.474923
O13   O     O_R   0.693280 0.995650 0.447220 -0.511321
O14   O     O_R   0.657260 0.178740 0.451050 -0.493275
O15   O     O_R   0.502640 0.195380 0.446850 -0.503465
O16   O     O_R   0.319630 0.976590 0.450330 -0.493361
O17   O     O_R   0.303680 0.807790 0.552740 -0.520898
O18   O     O_R   0.522820 0.843620 0.549310 -0.527120
O19   O     O_R   0.694060 0.998080 0.553560 -0.450982
O20   O     O_3   0.466823 0.668671 0.186393 -0.565231
O21   O     O_3   0.867205 0.947678 0.195636 -0.549731
O22   O     O_3   0.814677 0.387293 0.609841 -0.573989
O23   O     O_R   0.503420 0.197810 0.553190 -0.529424
O24   O     O_3   0.345259 0.805693 0.731854 -0.551879
O25   O     O_3   0.731726 0.002302 0.775868 -0.581921
O26   O     O_3   0.457962 0.665762 0.710325 -0.529865
O27   O     O_3   0.841113 0.004651 0.617017 -0.541682
O28   O     O_3   0.449323 0.694396 0.286722 -0.560328
O29   O     O_R   0.320350 0.978840 0.548910 -0.503534
O30   O     O_3   0.499990 0.999990 0.500010 -0.260499
O31   O     O_R   0.819150 0.845650 0.033320 -0.497476
O32   O     O_R   0.006060 0.815720 0.028680 -0.495333
O33   O     O_R   0.028100 0.664460 0.032550 -0.500788
O34   O     O_R   0.811290 0.477490 0.029660 -0.490148

loop_
_geom_bond_atom_site_label_1
_geom_bond_atom_site_label_2
_ccdc_geom_bond_type
C33   H34   S    
C25   C31   A    
C7    C10   S    
Cr6   O2    S    
C63   C65   A    
Cr3   O16   S    
C4    O15   A    
C81   H30   S    
C70   C78   S    
C88   H53   S    
C2    C7    A    
C35   H58   S    
C75   C76   A    
C77   H24   S    
C28   O18   A    
C44   O24   S    
C87   O26   S    
Cr3   O23   S    
C39   C41   A    
C54   C60   A    
C79   H25   S    
C12   C23   A    
C84   H38   S    
C26   C27   A    
C4    O14   A    
C15   O20   S    
C45   C76   A    
Cr1   O1    S    
C90   H57   S    
C36   C37   A    
C87   H50   S    
Cr4   O32   S    
C73   O8    A    
C25   C40   S    
C30   C31   A    
Cr2   O30   S    
C27   C29   A    
C80   H29   S    
C68   C74   S    
C46   H9    S    
C75   H1    S    
C17   C20   A    
C56   C78   T    
Cr1   O17   S    
C18   C19   A    
C41   C42   A    
C31   H2    S    
C49   C50   A    
C16   O16   A    
Cr5   O34   S    
C63   C68   A    
C61   C66   A    
C58   C66   S    
C84   H40   S    
C35   C36   A    
C10   C89   T    
Cr2   O14   S    
C8    C9    S    
C86   O25   S    
C41   H3    S    
C19   C22   S    
C87   H48   S    
Cr4   O6    S    
C6    H21   S    
C86   H44   S    
C34   C75   A    
Cr3   O30   S    
C60   O27   S    
C26   O22   S    
C39   C52   S    
C50   H7    S    
C81   H31   S    
C48   C53   A    
C49   H8    S    
C42   H6    S    
C57   O26   S    
C44   C46   A    
C86   H47   S    
C59   H16   S    
C77   C79   S    
Cr2   O19   S    
C15   C20   A    
C79   H26   S    
C40   O12   A    
C55   H10   S    
C64   C67   T    
C72   O7    A    
C35   C38   A    
Cr4   O31   S    
C45   C56   S    
C73   O9    A    
C3    C8    A    
C69   O33   A    
C28   C54   S    
C36   H56   S    
C88   O27   S    
C47   C51   A    
C50   C51   A    
C25   C26   A    
C76   H60   S    
C47   H4    S    
Cr1   O18   S    
C70   O2    A    
Cr4   O11   S    
C43   C44   A    
C59   C60   A    
C29   C30   A    
C84   H39   S    
Cr5   O7    S    
C23   H17   S    
C40   O23   A    
Cr2   O12   S    
C47   C48   A    
C69   O32   A    
Cr2   O13   S    
C23   C34   A    
C82   O22   S    
C17   C18   A    
C88   H52   S    
Cr6   O11   S    
C32   C37   A    
C82   H33   S    
C9    C11   T    
Cr4   O5    S    
Cr1   O4    S    
C39   C46   A    
C30   H59   S    
Cr1   O30   S    
C90   O28   S    
C77   H22   S    
C77   O20   S    
C55   C57   A    
C81   H32   S    
Cr6   O10   S    
C83   C84   S    
C5    C8    A    
C1    C13   S    
C42   C43   A    
C32   H23   S    
C74   O5    A    
C85   H41   S    
C74   O10   A    
C70   O34   A    
C86   H46   S    
C80   H28   S    
C17   O21   S    
C85   H43   S    
C54   C55   A    
Cr3   O15   S    
C87   H49   S    
C16   O1    A    
C14   C15   A    
C14   C19   A    
C1    O4    A    
C71   O31   A    
C90   H55   S    
Cr5   O11   S    
C34   C67   S    
C12   H11   S    
C14   O28   S    
C90   H54   S    
C11   C69   S    
C28   O19   A    
C6    C7    A    
C12   C45   A    
C71   O3    A    
C4    C64   S    
C61   O25   S    
C33   C38   A    
C62   C68   A    
C32   C33   A    
C2    C3    A    
C58   C59   A    
C81   O21   S    
C83   H36   S    
C5    H20   S    
C3    H19   S    
Cr5   O8    S    
C2    H18   S    
C43   C51   S    
C57   C58   A    
C5    C6    A    
C62   H13   S    
C85   O24   S    
C49   C53   A    
C48   H5    S    
C52   O17   A    
C1    O13   A    
C27   H45   S    
C88   H51   S    
C13   C22   T    
C63   H15   S    
C61   C62   A    
C18   H12   S    
C65   H14   S    
C83   H37   S    
Cr5   O33   S    
C79   C80   S    
C16   C89   S    
Cr6   O3    S    
C20   C21   S    
C65   C66   A    
C52   O29   A    
C21   C24   T    
C29   C37   S    
C72   O6    A    
Cr6   O9    S    
C82   C83   S    
C82   H35   S    
C53   C72   S    
C85   H42   S    
C38   C73   S    
C24   C71   S    
C80   H27   S    
Cr3   O29   S    
