data_mof_unit_60877.cif
_audit_creation_date              2012-10-26T21:25:37-0400
_audit_creation_method            fapswitch 2.2
_symmetry_space_group_name_H-M    P1
_symmetry_Int_Tables_number       1
_space_group_crystal_system       monoclinic
_cell_length_a                    16.010638
_cell_length_b                    14.760093
_cell_length_c                    14.36773
_cell_angle_alpha                 90.0
_cell_angle_beta                  89.986329
_cell_angle_gamma                 90.0
_cell_volume                      3395.36038968

loop_
_atom_site_label
_atom_site_type_symbol
_atom_type_description
_atom_site_fract_x
_atom_site_fract_y
_atom_site_fract_z
_atom_type_partial_charge
C1    C     C_1   0.251746 0.500000 0.500025 0.072946
C2    C     C_R   0.659194 0.500000 0.499973 0.543888
C3    C     C_R   0.499996 0.500000 0.330564 0.540541
C4    C     C_R   0.500004 0.500000 0.669436 0.540541
C5    C     C_1   0.500000 0.802707 0.500000 0.308226
C6    C     C_1   0.500000 0.197293 0.500000 0.308226
C7    C     C_1   0.499995 0.500000 0.228393 0.012466
C8    C     C_1   0.500005 0.500000 0.771607 0.012466
C9    C     C_1   0.499996 0.500000 0.143117 0.014236
C10   C     C_1   0.500004 0.500000 0.856883 0.014236
C11   C     C_1   0.499999 0.500000 0.042637 0.052941
C12   C     C_1   0.748254 0.500000 0.499975 0.072945
C13   C     C_1   0.500001 0.500000 0.957363 0.052941
C14   C     C_R   0.558447 0.952079 0.553195 0.376678
C15   C     C_R   0.441552 0.047921 0.446805 0.376679
C16   C     C_R   0.441552 0.952079 0.446805 0.376678
C17   C     C_R   0.558447 0.047921 0.553195 0.376678
C18   C     C_R   0.956389 0.582310 0.500000 0.384479
C19   C     C_R   0.043611 0.417690 0.500000 0.384479
C20   C     C_R   0.043611 0.582310 0.500009 0.384479
C21   C     C_R   0.956389 0.417690 0.499991 0.384479
C22   C     C_R   0.912746 0.500000 0.499990 -0.081916
C23   C     C_R   0.087254 0.500000 0.500010 -0.081916
C24   C     C_1   0.823249 0.500000 0.499981 0.117083
C25   C     C_1   0.176751 0.500000 0.500019 0.117083
C26   C     C_R   0.500000 0.902882 0.500000 -0.101490
C27   C     C_R   0.500000 0.097118 0.500000 -0.101490
C28   C     C_R   0.340806 0.500000 0.500027 0.543888
Cu1   Cu    Cu3+1 0.500000 0.589220 0.500000 1.109411
Cu2   Cu    Cu3+1 0.500000 0.410780 0.500000 1.109411
F1    F     F_    0.615784 0.092756 0.605381 -0.518952
F2    F     F_    0.384216 0.907244 0.394619 -0.518952
F3    F     F_    0.384216 0.092756 0.394619 -0.518951
F4    F     F_    0.615784 0.907244 0.605381 -0.518951
F5    F     F_    0.085478 0.662329 0.500016 -0.513349
F6    F     F_    0.914522 0.337671 0.499984 -0.513349
F7    F     F_    0.914522 0.662329 0.500001 -0.513348
F8    F     F_    0.085478 0.337671 0.499999 -0.513348
N1    N     N_1   0.500000 0.276710 0.500000 -0.146621
N2    N     N_1   0.500000 0.723290 0.500000 -0.146621
O1    O     O_R   0.380310 0.575320 0.500020 -0.475041
O2    O     O_R   0.619690 0.424680 0.499980 -0.475040
O3    O     O_R   0.619690 0.575320 0.499980 -0.475040
O4    O     O_R   0.380310 0.424680 0.500020 -0.475041
O5    O     O_R   0.500000 0.575360 0.376050 -0.474671
O6    O     O_R   0.500000 0.424640 0.623950 -0.474671
O7    O     O_R   0.500000 0.575360 0.623950 -0.474671
O8    O     O_R   0.500000 0.424640 0.376050 -0.474670

loop_
_geom_bond_atom_site_label_1
_geom_bond_atom_site_label_2
_ccdc_geom_bond_type
C14   F4    S    
C1    C28   S    
C19   C23   A    
C10   C13   S    
Cu1   Cu2   S    
C19   F8    S    
C16   F2    S    
C9    C11   S    
C3    O8    A    
C15   C27   A    
C6    C27   S    
C20   C23   A    
C2    O3    A    
C4    C8    S    
C2    C12   S    
C28   O4    A    
C3    O5    A    
C21   F6    S    
C4    O6    A    
C21   C22   A    
C14   C26   A    
C1    C25   T    
C11   C13   T    
C14   C17   A    
Cu2   O4    S    
C2    O2    A    
Cu1   N2    S    
Cu2   O8    S    
C19   C21   A    
C18   F7    S    
Cu1   O7    S    
Cu2   N1    S    
C3    C7    S    
C23   C25   S    
C16   C26   A    
C17   F1    S    
C22   C24   S    
C15   C16   A    
C17   C27   A    
C28   O1    A    
C18   C20   A    
C8    C10   T    
C5    N2    T    
C7    C9    T    
C12   C24   T    
C6    N1    T    
Cu2   O2    S    
Cu1   O1    S    
C18   C22   A    
C20   F5    S    
Cu2   O6    S    
Cu1   O3    S    
C5    C26   S    
Cu1   O5    S    
C15   F3    S    
C4    O7    A    
