data_mof_unit_66634.cif
_audit_creation_date              2013-03-05T16:46:08-0500
_audit_creation_method            fapswitch 2.2
_symmetry_space_group_name_H-M    P1
_symmetry_Int_Tables_number       1
_space_group_crystal_system       triclinic
_cell_length_a                    10.691308
_cell_length_b                    10.623391
_cell_length_c                    9.92199
_cell_angle_alpha                 86.82908
_cell_angle_beta                  90.270376
_cell_angle_gamma                 89.976637
_cell_volume                      1125.1811056

loop_
_atom_site_label
_atom_site_type_symbol
_atom_site_description
_atom_site_fract_x
_atom_site_fract_y
_atom_site_fract_z
_atom_type_partial_charge
O1    O     O_R   0.500020 0.316790 0.614690 -0.639360
O2    O     O_R   0.500000 0.316760 0.385350 -0.548336
C1    C     C_R   0.516566 0.261316 0.502516 0.976969
O3    O     O_R   0.316770 0.500030 0.614670 -0.580720
O4    O     O_R   0.316750 0.499990 0.385330 -0.646487
C2    C     C_R   0.260665 0.506154 0.498788 0.927550
Zn1   Zn    Zn3+2 0.500010 0.500020 0.653130 1.004017
Zn2   Zn    Zn3+2 0.499990 0.499980 0.346870 1.046512
O5    O     O_R   0.500000 0.683240 0.614650 -0.612187
O6    O     O_R   0.499980 0.683210 0.385310 -0.606345
O7    O     O_R   0.683250 0.500010 0.614670 -0.596449
O8    O     O_R   0.683230 0.499970 0.385330 -0.586040
C3    C     C_R   0.505770 0.740771 0.497848 0.880876
C4    C     C_R   0.739546 0.498869 0.501055 0.826534
H1    H     H_    0.267150 0.004238 0.146495 0.186839
C5    C     C_R   0.204592 0.936152 0.343613 0.295020
C6    C     C_R   0.161261 0.830078 0.423910 0.201778
C7    C     C_R   0.130519 0.717798 0.358231 -0.084229
C8    C     C_R   0.144284 0.714028 0.216078 -0.014462
C9    C     C_R   0.201475 0.815091 0.143956 -0.105910
H2    H     H_    0.216620 0.812799 0.036218 0.207875
C10   C     C_R   0.230868 0.924536 0.206942 -0.190012
C11   C     C_R   0.931469 0.612982 0.439007 -0.063470
C12   C     C_R   0.872081 0.507765 0.504481 -0.097858
C13   C     C_R   0.939806 0.412310 0.576184 0.082700
C14   C     C_R   0.067762 0.413774 0.568024 -0.110207
H3    H     H_    0.121379 0.337450 0.616070 0.218902
C15   C     C_R   0.128059 0.511044 0.496719 -0.089667
C16   C     C_R   0.062665 0.612948 0.432480 0.020385
C17   C     C_R   0.858956 0.317582 0.800330 0.327431
C18   C     C_R   0.832682 0.206423 0.878886 -0.178560
H4    H     H_    0.818266 0.212100 0.986313 0.248902
C19   C     C_R   0.834046 0.087105 0.823971 -0.059417
C20   C     C_R   0.851126 0.079811 0.682889 -0.000669
C21   C     C_R   0.873288 0.190903 0.603670 -0.241568
H5    H     H_    0.889106 0.185840 0.496281 0.210756
C22   C     C_R   0.882437 0.308211 0.660489 -0.014463
C23   C     C_R   0.545484 0.057794 0.625487 0.045270
C24   C     C_R   0.555199 0.131278 0.506229 -0.212560
C25   C     C_R   0.591876 0.072037 0.387669 0.315264
C26   C     C_R   0.579768 0.941223 0.385373 -0.240461
H6    H     H_    0.603517 0.895029 0.295730 0.273718
C27   C     C_R   0.535162 0.872536 0.499245 -0.177004
C28   C     C_R   0.536568 0.930041 0.622237 0.196760
C29   C     C_3   0.450305 0.919603 0.739811 -0.398577
C30   C     C_3   0.457081 0.061856 0.740140 -0.440643
H7    H     H_    0.356644 0.883352 0.713968 0.259105
H8    H     H_    0.495064 0.871921 0.830042 0.232684
H9    H     H_    0.367830 0.107813 0.707856 0.256760
H10   H     H_    0.503626 0.096377 0.831464 0.222407
C31   C     C_R   0.447132 0.402889 0.078059 0.230220
N1    N     N_R   0.499160 0.499140 0.142800 -0.168560
C32   C     C_R   0.555557 0.593586 0.064168 0.367504
C33   C     C_R   0.558708 0.591111 0.921701 -0.088275
H11   H     H_    0.603905 0.666667 0.862771 0.188923
N2    N     N_R   0.499160 0.499180 0.857150 -0.141186
C34   C     C_R   0.444781 0.402805 0.935041 0.088659
C35   C     C_3   0.306799 0.371015 0.941113 -0.245934
C36   C     C_3   0.314343 0.368102 0.093557 -0.499364
H12   H     H_    0.246359 0.447864 0.896265 0.248755
H13   H     H_    0.259567 0.442687 0.138678 0.208589
H14   H     H_    0.304012 0.273848 0.146666 0.245543
C37   C     C_2   0.826873 0.973392 0.918125 0.551077
H15   H     H_    0.860318 0.882619 0.889576 0.167504
O9    O     O_2   0.787342 0.980626 0.032625 -0.463137
C38   C     C_2   0.848871 0.960702 0.611145 0.434598
H16   H     H_    0.880131 0.961982 0.507304 0.137674
O10   O     O_2   0.809542 0.861851 0.663006 -0.609477
N3    N     N_R   0.631722 0.142458 0.267941 0.240094
O11   O     O_R   0.716275 0.229908 0.275310 -0.392669
O12   O     O_R   0.588914 0.114476 0.150338 -0.356311
N4    N     N_R   0.597902 0.704802 0.121534 0.197097
O13   O     O_R   0.717671 0.719295 0.135597 -0.336119
O14   O     O_R   0.528217 0.804593 0.102072 -0.436906
N5    N     N_R   0.214271 0.058907 0.395289 0.223496
O15   O     O_R   0.112616 0.116008 0.429513 -0.381252
O16   O     O_R   0.311592 0.127323 0.364646 -0.451403
C39   C     C_2   0.273277 0.242511 0.897807 0.460537
H17   H     H_    0.324654 0.160879 0.938276 0.078970
O17   O     O_2   0.182526 0.227405 0.825771 -0.564776
N6    N     N_R   0.146796 0.836199 0.568822 0.184235
O18   O     O_R   0.157778 0.735380 0.648450 -0.370945
O19   O     O_R   0.134103 0.943281 0.624634 -0.366751
C40   C     C_2   0.089732 0.610371 0.140027 0.482885
H18   H     H_    0.047033 0.529165 0.192424 0.094347
O20   O     O_2   0.090862 0.614682 0.016767 -0.503766
C41   C     C_2   0.855062 0.723707 0.387456 0.547868
H19   H     H_    0.758974 0.732603 0.418898 0.061533
O21   O     O_2   0.896871 0.806593 0.310405 -0.537428
N7    N     N_R   0.865685 0.435887 0.866076 0.220079
O22   O     O_R   0.837667 0.440166 0.993304 -0.371888
O23   O     O_R   0.898319 0.540364 0.801218 -0.303393

loop_
_geom_bond_atom_site_label_1
_geom_bond_atom_site_label_2
_geom_bond_distance
_ccdc_geom_bond_type
C38   O10   1.219418 D    
C41   H19   1.080653 S    
C37   O9    1.220392 D    
N5    O15   1.300077 A    
C5    N5    1.431012 S    
C26   H6    1.070847 S    
C8    C9    1.399399 A    
C17   N7    1.449338 S    
C20   C38   1.485906 S    
N6    O18   1.300191 A    
C34   C35   1.514232 S    
C32   C33   1.415813 A    
C28   C29   1.489863 S    
Zn1   O7    1.997662 S    
C30   H9    1.109468 S    
C14   H3    1.080536 S    
O4    C2    1.282809 A    
C11   C16   1.404456 A    
C15   C16   1.409202 A    
C21   C22   1.399191 A    
C40   O20   1.221427 D    
C7    C8    1.421555 A    
C23   C24   1.385416 A    
O7    C4    1.281049 A    
C39   O17   1.218299 D    
C35   H12   1.112975 S    
N2    C34   1.378658 A    
C20   C21   1.402181 A    
C4    C12   1.420526 S    
N3    O12   1.301093 A    
O5    C3    1.281702 A    
C13   C22   1.483891 S    
H1    C10   1.083220 S    
C2    C15   1.418672 S    
C21   H5    1.083903 S    
C5    C6    1.422591 A    
C11   C12   1.413753 A    
C18   C19   1.407227 A    
C31   C34   1.419175 A    
Zn2   N1    2.025271 S    
C19   C37   1.487889 S    
C38   H16   1.084029 S    
C1    C24   1.440176 S    
C11   C41   1.497084 S    
C26   C27   1.396627 A    
Zn1   N2    2.023874 S    
O3    Zn1   1.994125 S    
N6    O19   1.299775 A    
C19   C20   1.418875 A    
C29   H7    1.107071 S    
C33   N2    1.354682 A    
C36   H13   1.101154 S    
C25   N3    1.434937 S    
C31   N1    1.355483 A    
C12   C13   1.404803 A    
O3    C2    1.292753 A    
C24   C25   1.421160 A    
C39   H17   1.083515 S    
C13   C14   1.370833 A    
C29   C30   1.513158 S    
C17   C22   1.420086 A    
O1    C1    1.300645 A    
C27   C28   1.394603 A    
C23   C28   1.362707 A    
N7    O23   1.300443 A    
C18   H4    1.082660 S    
Zn2   O8    1.994126 S    
C6    C7    1.428196 A    
C7    C16   1.491508 S    
C40   H18   1.084364 S    
N5    O16   1.297097 A    
N4    O14   1.300599 A    
C25   C26   1.397191 A    
O8    C4    1.293469 A    
C41   O21   1.220109 D    
C31   C36   1.473750 S    
C8    C40   1.486753 S    
C3    C27   1.435550 S    
N1    C32   1.377415 A    
C29   H8    1.110255 S    
Zn1   O5    1.962677 S    
C33   H11   1.081986 S    
C36   H14   1.111186 S    
C5    C10   1.398242 A    
O1    Zn1   2.004134 S    
O2    Zn2   1.962675 S    
C9    C10   1.385622 A    
N4    O13   1.297572 A    
O6    C3    1.303637 A    
O4    Zn2   1.997662 S    
C30   H10   1.111679 S    
C14   C15   1.381260 A    
O2    C1    1.285286 A    
C35   C36   1.512921 S    
N7    O22   1.302014 A    
C17   C18   1.407630 A    
C6    N6    1.451862 S    
N3    O11   1.301220 A    
C23   C30   1.484855 S    
C35   C39   1.496847 S    
C37   H15   1.081145 S    
C9    H2    1.083526 S    
Zn2   O6    2.004135 S    
C32   N4    1.413238 S    
