data_mof_unit_22457.cif
_audit_creation_date              2012-12-11T17:43:16-0500
_audit_creation_method            fapswitch 2.2
_symmetry_space_group_name_H-M    P1
_symmetry_Int_Tables_number       1
_space_group_crystal_system       triclinic
_cell_length_a                    15.040168
_cell_length_b                    14.998409
_cell_length_c                    17.316387
_cell_angle_alpha                 108.837112
_cell_angle_beta                  105.813292
_cell_angle_gamma                 109.154168
_cell_volume                      3164.01769677

loop_
_atom_site_label
_atom_site_type_symbol
_atom_type_description
_atom_site_fract_x
_atom_site_fract_y
_atom_site_fract_z
_atom_type_partial_charge
Br1   Br    Br    0.809350 0.171231 0.559792 -0.645988
Br2   Br    Br    0.285518 0.837932 0.447286 -0.665726
Br3   Br    Br    0.243096 0.719666 0.873692 -0.643475
Br4   Br    Br    0.754266 0.316095 0.151590 -0.685978
C1    C     C_R   0.081512 0.285727 0.077678 -0.132532
C2    C     C_R   0.074232 0.110785 0.128164 -0.228721
C3    C     C_R   0.987474 0.921361 0.074201 0.054828
C4    C     C_R   0.982646 0.106058 0.074289 0.060972
C5    C     C_R   0.077163 0.019843 0.131165 0.035288
C6    C     C_R   0.888177 0.012200 0.037909 0.031634
C7    C     C_R   0.722279 0.943022 0.904771 -0.178894
C8    C     C_R   0.161372 0.993705 0.262122 -0.140571
C9    C     C_R   0.580728 0.976648 0.923442 -0.074078
C10   C     C_R   0.348658 0.077801 0.342990 -0.101401
C11   C     C_R   0.484117 0.666067 0.256923 -0.116164
C12   C     C_R   0.907703 0.721241 0.976552 -0.119170
C13   C     C_R   0.495148 0.244187 0.664618 -0.101883
C14   C     C_R   0.475014 0.621719 0.168976 -0.116471
C15   C     C_R   0.492364 0.280629 0.748711 -0.122664
C16   C     C_R   0.935786 0.515333 0.747474 -0.176290
C17   C     C_R   0.065763 0.505178 0.259827 -0.167931
C18   C     C_R   0.465682 0.519317 0.130151 0.113275
C19   C     C_R   0.462324 0.360946 0.775991 0.113951
C20   C     C_R   0.466674 0.462525 0.180689 -0.164121
C21   C     C_R   0.433545 0.402614 0.716834 -0.162097
C22   C     C_R   0.474473 0.506795 0.268236 -0.104784
C23   C     C_R   0.026674 0.573916 0.746416 -0.015735
C24   C     C_R   0.436275 0.365749 0.632709 -0.095620
C25   C     C_R   0.483114 0.608520 0.306315 -0.095960
C26   C     C_R   0.467332 0.286882 0.606758 -0.094103
C27   C     C_R   0.541828 0.462128 0.028860 -0.213297
C28   C     C_R   0.374336 0.409842 0.874199 -0.227139
C29   C     C_R   0.545114 0.430167 0.945267 0.060479
C30   C     C_R   0.373061 0.445244 0.959066 0.070995
C31   C     C_R   0.461149 0.401250 0.866069 0.023234
C32   C     C_R   0.457670 0.472239 0.037393 0.007323
C33   C     C_R   0.621719 0.931310 0.867574 -0.127749
C34   C     C_R   0.974777 0.458968 0.265996 -0.031275
C35   C     C_R   0.249952 0.016774 0.333730 -0.077149
C36   C     C_R   0.970642 0.460580 0.347146 0.154246
C37   C     C_R   0.033148 0.575119 0.666502 0.136555
C38   C     C_R   0.072959 0.664650 0.579068 -0.207694
C39   C     C_R   0.934314 0.371735 0.435654 -0.210783
C40   C     C_R   0.778092 0.203003 0.816320 -0.145815
C41   C     C_R   0.267300 0.793718 0.182811 -0.135180
C42   C     C_R   0.076712 0.669429 0.661255 -0.117875
C43   C     C_R   0.928574 0.366587 0.353223 -0.122773
C44   C     C_R   0.988390 0.476651 0.592579 -0.263169
C45   C     C_R   0.755937 0.194485 0.731038 0.126554
C46   C     C_R   0.018311 0.559480 0.421249 -0.251877
C47   C     C_R   0.982593 0.470836 0.510678 0.169879
C48   C     C_R   0.024914 0.565646 0.503663 0.166022
C49   C     C_R   0.688845 0.095200 0.650682 0.042450
C50   C     C_R   0.402635 0.880678 0.342546 0.022203
C51   C     C_R   0.582801 0.006155 0.404823 -0.152498
C52   C     C_R   0.518891 0.948777 0.581537 -0.155084
C53   C     C_R   0.488026 0.938091 0.331001 -0.277278
C54   C     C_R   0.609474 0.020066 0.656537 -0.260759
C55   C     C_R   0.409788 0.892501 0.427707 0.215247
C56   C     C_R   0.310013 0.796844 0.265506 0.106816
C57   C     C_R   0.686805 0.085102 0.566834 0.244866
C58   C     C_R   0.506959 0.951004 0.499663 0.048589
C59   C     C_R   0.593716 0.013318 0.489969 0.039627
C60   C     C_R   0.640180 0.033677 0.016609 -0.053185
C61   C     C_R   0.359106 0.114826 0.280008 -0.116393
C62   C     C_R   0.741218 0.046544 0.054111 -0.130518
C63   C     C_R   0.270757 0.093240 0.208944 -0.172588
C64   C     C_R   0.258225 0.531618 0.949833 -0.116388
C65   C     C_R   0.699590 0.405967 0.996671 -0.106062
C66   C     C_R   0.783095 0.001972 0.998225 0.083416
C67   C     C_R   0.285654 0.458270 0.966935 0.029858
C68   C     C_R   0.171020 0.033035 0.199808 0.096944
C69   C     C_R   0.777943 0.294971 0.736760 -0.096947
C70   C     C_R   0.260509 0.697249 0.258328 -0.060110
C71   C     C_R   0.245892 0.433237 0.023894 -0.097323
C72   C     C_R   0.705598 0.502775 0.922724 -0.119806
C73   C     C_R   0.108289 0.602836 0.824298 0.306479
C74   C     C_R   0.892228 0.415710 0.183892 0.323757
C75   C     C_R   0.910516 0.204064 0.999725 -0.129953
C76   C     C_R   0.081066 0.806619 0.050547 -0.086315
C77   C     C_R   0.991237 0.193914 0.050285 0.064385
C78   C     C_R   0.643602 0.440567 0.948735 0.017759
C79   C     C_R   0.991997 0.820016 0.039164 0.040967
C80   C     C_R   0.892394 0.921167 0.037716 -0.223032
H1    H     H_    0.158065 0.311799 0.127354 0.089575
H2    H     H_    0.513382 0.245984 0.792377 0.115872
H3    H     H_    0.460219 0.383710 0.151841 0.128116
H4    H     H_    0.410423 0.464618 0.736284 0.124403
H5    H     H_    0.474146 0.462380 0.306632 0.114479
H6    H     H_    0.414671 0.398660 0.587729 0.115767
H7    H     H_    0.608735 0.486559 0.089423 0.158383
H8    H     H_    0.307734 0.388658 0.815013 0.142764
H9    H     H_    0.051052 0.631241 0.414468 0.171247
H10   H     H_    0.956133 0.404458 0.598857 0.182372
H11   H     H_    0.894208 0.290204 0.295234 0.151187
H12   H     H_    0.826504 0.701374 0.949225 0.095861
H13   H     H_    0.110652 0.745495 0.719456 0.162029
H14   H     H_    0.105683 0.737450 0.574002 0.160419
H15   H     H_    0.902154 0.299035 0.441016 0.171191
H16   H     H_    0.857577 0.487742 0.699559 0.125524
H17   H     H_    0.144162 0.537537 0.309613 0.137681
H18   H     H_    0.575435 0.886770 0.795494 0.123632
H19   H     H_    0.242000 0.988551 0.382747 0.170321
H20   H     H_    0.611112 0.023503 0.720304 0.140857
H21   H     H_    0.482070 0.928370 0.264747 0.152406
H22   H     H_    0.646761 0.051150 0.394068 0.187531
H23   H     H_    0.753182 0.907167 0.860975 0.127753
H24   H     H_    0.457143 0.896182 0.589780 0.187021
H25   H     H_    0.502717 0.967160 0.894589 0.134816
H26   H     H_    0.417077 0.096326 0.398966 0.123934
H27   H     H_    0.607895 0.067881 0.059765 0.152734
H28   H     H_    0.435665 0.161582 0.287015 0.125856
H29   H     H_    0.786688 0.090919 0.126371 0.133186
H30   H     H_    0.280017 0.124266 0.161631 0.119984
H31   H     H_    0.767158 0.139949 0.835504 0.108600
H32   H     H_    0.298456 0.853175 0.162095 0.117494
H33   H     H_    0.281174 0.569548 0.910490 0.162479
H34   H     H_    0.085368 0.948245 0.256962 0.128119
H35   H     H_    0.667103 0.343524 0.013368 0.167933
H36   H     H_    0.763462 0.315941 0.682134 0.131587
H37   H     H_    0.285034 0.667636 0.305220 0.118180
H38   H     H_    0.256193 0.381399 0.052802 0.106704
H39   H     H_    0.681943 0.534050 0.876988 0.103491
H40   H     H_    0.828986 0.159708 0.978469 0.133502
H41   H     H_    0.160453 0.866549 0.088351 0.117173
H42   H     H_    0.820294 0.848839 0.004176 0.129730
H43   H     H_    0.144588 0.185010 0.167452 0.122100
H44   H     H_    0.489587 0.643012 0.374224 0.114136
H45   H     H_    0.469803 0.258883 0.541820 0.106418
H46   H     H_    0.492400 0.745182 0.286968 0.131764
H47   H     H_    0.518784 0.182790 0.644279 0.128670
H48   H     H_    0.475605 0.667036 0.131301 0.120200
N1    N     N_R   0.055660 0.348550 0.045620 -0.041860
N2    N     N_R   0.185200 0.638170 0.176300 -0.049051
N3    N     N_R   0.201680 0.494570 0.045620 -0.048442
N4    N     N_R   0.798320 0.505430 0.954380 -0.044979
N5    N     N_R   0.068420 0.560530 0.871650 -0.067472
N6    N     N_R   0.931580 0.439470 0.128350 -0.069097
N7    N     N_R   0.948070 0.295860 0.997670 -0.041924
N8    N     N_R   0.051930 0.704140 0.002330 -0.040406
N9    N     N_R   0.944340 0.651450 0.954380 -0.046019
N10   N     N_R   0.960830 0.507850 0.823700 -0.052289
N11   N     N_R   0.039170 0.492150 0.176300 -0.056328
N12   N     N_R   0.811290 0.303410 0.871650 -0.045845
N13   N     N_R   0.188710 0.696590 0.128350 -0.044903
N14   N     N_R   0.205200 0.552990 0.997670 -0.038770
N15   N     N_R   0.794800 0.447010 0.002330 -0.038543
N16   N     N_R   0.814800 0.361830 0.823700 -0.049390
Ni1   Ni    Ni4+2 0.119340 0.493420 0.109960 0.214867
Ni2   Ni    Ni4+2 0.880660 0.506580 0.890040 0.215732
Ni3   Ni    Ni4+2 0.872590 0.372590 0.000000 0.238277
Ni4   Ni    Ni4+2 0.127410 0.627410 0.000000 0.259035

loop_
_geom_bond_atom_site_label_1
_geom_bond_atom_site_label_2
_ccdc_geom_bond_type
C40   C45   A    
C36   C43   A    
C75   N7    A    
N5    N10   A    
C45   C49   S    
C41   C56   A    
C62   H29   S    
C13   H47   S    
C71   H38   S    
C11   C14   A    
C53   H21   S    
C5    C68   S    
N12   N16   A    
C15   H2    S    
C2    C5    A    
C72   N4    A    
C7    C66   A    
C50   C56   S    
C21   C24   A    
C1    N1    A    
C11   H46   S    
C44   H10   S    
C41   N13   A    
C34   C36   S    
C63   H30   S    
N16   Ni2   S    
C2    H43   S    
N12   Ni3   S    
N6    N11   A    
C38   H14   S    
C33   H18   S    
C71   N3    A    
C45   C69   A    
C76   H41   S    
C7    C33   A    
C63   C68   A    
C38   C42   A    
C6    C80   A    
C57   C59   A    
C52   H24   S    
C9    H25   S    
C65   C78   A    
C13   C15   A    
C10   C35   A    
C14   H48   S    
C10   C61   A    
C44   C47   A    
C17   C34   A    
C40   H31   S    
C61   C63   A    
C51   C59   A    
C46   C48   A    
C37   C42   A    
C27   C29   A    
N5    Ni4   S    
C29   C78   S    
N8    Ni4   S    
C9    C33   A    
C52   C58   A    
C1    H1    S    
C3    C80   A    
C8    C68   A    
C69   H36   S    
C13   C26   A    
C49   C57   A    
C76   C79   A    
C74   N6    A    
N9    Ni2   S    
C11   C25   A    
C50   C55   A    
C80   H42   S    
C12   H12   S    
C51   H22   S    
C4    C77   S    
N4    N15   A    
C28   C31   A    
C16   N10   A    
N1    Ni1   S    
N8    N9    A    
C17   N11   A    
C72   C78   A    
C75   C77   A    
Br2   C55   S    
C60   H27   S    
C2    C4    A    
C69   N16   A    
C28   C30   A    
N3    Ni1   S    
N2    Ni1   S    
C65   H35   S    
C21   H4    S    
C47   C48   A    
C22   H5    S    
C60   C62   A    
C15   C19   A    
C61   H28   S    
Br4   C74   S    
C58   C59   A    
C64   H33   S    
N7    Ni3   S    
C1    C77   A    
C23   C37   S    
C18   C32   S    
C16   H16   S    
C40   N12   A    
N3    N14   A    
N14   Ni4   S    
C6    C66   S    
C42   H13   S    
N1    N7    A    
C27   H7    S    
C51   C53   A    
C7    H23   S    
C65   N15   A    
C18   C20   A    
C54   H20   S    
Br3   C73   S    
C64   N14   A    
C8    H34   S    
C10   H26   S    
N2    N13   A    
C55   C58   A    
C14   C18   A    
C72   H39   S    
C20   C22   A    
C73   N5    A    
C23   C73   A    
Br1   C57   S    
C12   C79   A    
N4    Ni2   S    
C49   C54   A    
C46   H9    S    
C35   H19   S    
C16   C23   A    
N6    Ni3   S    
C26   H45   S    
C34   C74   A    
C75   H40   S    
C62   C66   A    
C19   C31   S    
N10   Ni2   S    
C8    C35   A    
C24   C26   A    
C12   N9    A    
C17   H17   S    
C76   N8    A    
C39   H15   S    
C67   C71   A    
C41   H32   S    
C39   C47   A    
C3    C79   S    
C28   H8    S    
C9    C60   A    
C64   C67   A    
C36   C46   A    
N15   Ni3   S    
C70   N2    A    
C56   C70   A    
C29   C31   A    
C37   C44   A    
C52   C54   A    
C30   C32   A    
C19   C21   A    
C20   H3    S    
N13   Ni4   S    
C3    C5    A    
N11   Ni1   S    
C70   H37   S    
C22   C25   A    
C4    C6    A    
C25   H44   S    
C43   H11   S    
C27   C32   A    
C24   H6    S    
C39   C43   A    
C30   C67   S    
C38   C48   A    
C50   C53   A    
