data_mof_unit_66264.cif
_audit_creation_date              2012-12-11T15:18:35-0500
_audit_creation_method            fapswitch 2.2
_symmetry_space_group_name_H-M    P1
_symmetry_Int_Tables_number       1
_space_group_crystal_system       triclinic
_cell_length_a                    16.117653
_cell_length_b                    15.98455
_cell_length_c                    17.669917
_cell_angle_alpha                 107.355558
_cell_angle_beta                  105.703793
_cell_angle_gamma                 110.631916
_cell_volume                      3689.09535679

loop_
_atom_site_label
_atom_site_type_symbol
_atom_type_description
_atom_site_fract_x
_atom_site_fract_y
_atom_site_fract_z
_atom_type_partial_charge
C1    C     C_R   0.893086 0.905775 0.670282 -0.107695
C2    C     C_R   0.914613 0.715340 0.497809 0.198689
C3    C     C_R   0.748707 0.820526 0.257010 -0.124604
C4    C     C_R   0.082660 0.292113 0.539369 -0.125839
C5    C     C_R   0.272154 0.991766 0.569835 0.325977
C6    C     C_R   0.694473 0.729307 0.252520 0.077592
C7    C     C_R   0.328764 0.044297 0.537828 0.059455
C8    C     C_R   0.995227 0.706680 0.537119 0.026887
C9    C     C_R   0.030709 0.987760 0.240141 0.078215
C10   C     C_1   0.622253 0.010761 0.513683 0.009023
C11   C     C_1   0.562912 0.030072 0.529045 0.023604
C12   C     C_R   0.000106 0.303469 0.524103 0.078394
C13   C     C_1   0.489545 0.047562 0.541213 0.013814
C14   C     C_1   0.419255 0.052466 0.543845 -0.021465
C15   C     C_1   0.998453 0.394388 0.548348 -0.031152
C16   C     C_R   0.224800 0.187365 0.751504 -0.117806
C17   C     C_1   0.996708 0.470591 0.561345 0.012965
C18   C     C_1   0.995021 0.556776 0.564183 0.026979
C19   C     C_1   0.994466 0.627346 0.555963 0.016680
C20   C     C_1   0.317173 0.371737 0.838945 -0.050696
C21   C     C_2   0.418906 0.533083 0.986372 -0.215566
C22   C     C_2   0.427841 0.527346 0.061931 0.278883
C23   C     C_R   0.264589 0.283454 0.760011 0.087791
C24   C     C_1   0.517436 0.600343 0.135240 0.012047
C25   C     C_1   0.361545 0.446300 0.905415 0.072376
C26   C     C_1   0.597387 0.660003 0.190599 -0.039424
C27   C     C_1   0.039453 0.950028 0.160781 -0.041928
C28   C     C_R   0.736201 0.023632 0.444835 0.172627
C29   C     C_2   0.041871 0.890969 0.007020 -0.162479
C30   C     C_2   0.956271 0.849944 0.939080 -0.162508
C31   C     C_1   0.955703 0.870509 0.866003 0.053093
C32   C     C_1   0.043338 0.920226 0.091927 0.051482
C33   C     C_1   0.959992 0.897350 0.810249 -0.036737
C34   C     C_R   0.693271 0.990677 0.494824 0.038780
C35   C     C_R   0.238841 0.279797 0.677757 -0.126235
C36   C     C_R   0.736179 0.941636 0.528132 -0.160807
C37   C     C_R   0.919782 0.212281 0.470323 -0.105272
C38   C     C_R   0.055446 0.984599 0.743282 -0.135275
C39   C     C_R   0.968716 0.934528 0.747679 0.086277
C40   C     C_3   0.311000 0.971995 0.646006 -1.048635
C41   C     C_3   0.364843 0.435577 0.067080 -0.927065
C42   C     C_R   0.740381 0.727999 0.329501 -0.093312
C43   C     C_R   0.279269 0.081580 0.494119 -0.206996
C44   C     C_R   0.077201 0.793861 0.565987 -0.173394
C45   C     C_R   0.943807 0.967746 0.248701 -0.112291
C46   C     C_R   0.107025 0.047844 0.322069 -0.118192
H1    H     H_    0.817543 0.852217 0.647119 0.122961
H2    H     H_    0.110224 0.923662 0.001341 0.142179
H3    H     H_    0.233501 0.163606 0.803037 0.103251
H4    H     H_    0.266002 0.341510 0.662316 0.098139
H5    H     H_    0.715151 0.901367 0.564958 0.122104
H6    H     H_    0.845668 0.198644 0.443863 0.149427
H7    H     H_    0.127525 0.002707 0.786701 0.099420
H8    H     H_    0.707511 0.674620 0.351565 0.149537
H9    H     H_    0.307258 0.897646 0.622196 0.251784
H10   H     H_    0.388401 0.028685 0.688839 0.258699
H11   H     H_    0.268824 0.976691 0.686017 0.246997
H12   H     H_    0.308366 0.135627 0.470742 0.126597
H13   H     H_    0.374119 0.452570 0.135470 0.246665
H14   H     H_    0.286572 0.407828 0.025906 0.247148
H15   H     H_    0.385773 0.376709 0.044180 0.244863
H16   H     H_    0.149170 0.814592 0.610755 0.134435
H17   H     H_    0.870821 0.922575 0.196985 0.104738
H18   H     H_    0.183986 0.076545 0.337661 0.110087
H19   H     H_    0.725005 0.851742 0.214196 0.122439
H20   H     H_    0.469026 0.599208 0.985538 0.117136
H21   H     H_    0.888076 0.822921 0.946159 0.140360
H22   H     H_    0.156863 0.350861 0.571384 0.100292
I1    I     I_    0.775052 0.629668 0.489194 -0.466356
I2    I     I_    0.661983 0.039656 0.335231 -0.448479
N1    N     N_R   0.932430 0.938480 0.620530 -0.042148
N2    N     N_R   0.173120 0.127600 0.665820 -0.044023
N3    N     N_R   0.812300 0.005460 0.456230 -0.064739
N4    N     N_R   0.178530 0.184580 0.620530 -0.042413
N5    N     N_R   0.806890 0.948480 0.501510 -0.050574
N6    N     N_R   0.952060 0.145220 0.456230 -0.043923
N7    N     N_R   0.033360 0.987840 0.665820 -0.043577
N8    N     N_R   0.821470 0.815420 0.379470 -0.045861
N9    N     N_R   0.193110 0.051520 0.498490 -0.056990
N10   N     N_R   0.047940 0.854780 0.543770 -0.051037
N11   N     N_R   0.966640 0.012160 0.334180 -0.042157
N12   N     N_R   0.067570 0.061520 0.379470 -0.045294
N13   N     N_R   0.947010 0.805420 0.498490 -0.065609
N14   N     N_R   0.826880 0.872400 0.334180 -0.044515
N15   N     N_R   0.187700 0.994540 0.543770 -0.057526
N16   N     N_R   0.052990 0.194580 0.501510 -0.045002
Ni1   Ni    Ni4+2 0.878060 0.878060 0.500000 0.236604
Ni2   Ni    Ni4+2 0.121940 0.121940 0.500000 0.215380
Ni3   Ni    Ni4+2 0.109540 0.991270 0.603850 0.208831
Ni4   Ni    Ni4+2 0.890460 0.008730 0.396150 0.243898

loop_
_geom_bond_atom_site_label_1
_geom_bond_atom_site_label_2
_ccdc_geom_bond_type
N8    Ni1   S    
N13   Ni1   S    
C35   N4    A    
C9    C45   A    
C21   H20   S    
C16   N2    A    
C41   H15   S    
C3    C6    A    
N11   N12   A    
C6    C26   S    
N7    Ni3   S    
C33   C39   S    
C24   C26   T    
N3    Ni4   S    
C29   C32   S    
C30   C31   S    
N16   Ni2   S    
C22   C41   S    
C4    N16   A    
C20   C25   T    
C43   N9    A    
C12   C37   A    
C18   C19   T    
N10   Ni3   S    
C43   H12   S    
C46   N12   A    
C7    C14   S    
C40   H10   S    
C31   C33   T    
C7    C43   A    
C4    C12   A    
C2    I1    S    
C28   I2    S    
C30   H21   S    
C5    N15   A    
C28   C34   A    
C9    C46   A    
C13   C14   T    
N3    N5    A    
C2    N13   A    
C3    H19   S    
N14   Ni4   S    
N10   N13   A    
C28   N3    A    
N9    Ni2   S    
C45   N11   A    
C8    C19   S    
C29   H2    S    
C44   N10   A    
C16   H3    S    
C41   H13   S    
N2    N4    A    
C5    C7    A    
C37   H6    S    
N15   Ni3   S    
C1    H1    S    
C44   H16   S    
C45   H17   S    
C46   H18   S    
C29   C30   D    
C36   N5    A    
C20   C23   S    
C40   H9    S    
C35   H4    S    
C17   C18   S    
C10   C34   S    
C1    N1    A    
C36   H5    S    
N1    Ni1   S    
N11   Ni4   S    
N5    Ni1   S    
C37   N6    A    
C42   N8    A    
C16   C23   A    
C23   C35   A    
C22   C24   S    
N6    N16   A    
N1    N7    A    
C9    C27   S    
C4    H22   S    
C15   C17   T    
C21   C25   S    
C40   H11   S    
C27   C32   T    
C2    C8    A    
C8    C44   A    
C41   H14   S    
C38   N7    A    
C12   C15   S    
C42   H8    S    
N2    Ni3   S    
C11   C13   S    
C38   C39   A    
C38   H7    S    
N12   Ni2   S    
N9    N15   A    
C34   C36   A    
C10   C11   T    
C1    C39   A    
N8    N14   A    
C6    C42   A    
C5    C40   S    
C3    N14   A    
N4    Ni2   S    
C21   C22   D    
N6    Ni4   S    
