data_mof_unit_19915.cif
_audit_creation_date              2012-12-10T17:43:37-0500
_audit_creation_method            fapswitch 2.2
_symmetry_space_group_name_H-M    P1
_symmetry_Int_Tables_number       1
_space_group_crystal_system       triclinic
_cell_length_a                    14.948043
_cell_length_b                    10.670857
_cell_length_c                    9.923668
_cell_angle_alpha                 93.617893
_cell_angle_beta                  89.256444
_cell_angle_gamma                 91.701156
_cell_volume                      1578.95998789

loop_
_atom_site_label
_atom_site_type_symbol
_atom_type_description
_atom_site_fract_x
_atom_site_fract_y
_atom_site_fract_z
_atom_type_partial_charge
C1    C     C_R   0.505329 0.260905 0.495954 0.893282
C2    C     C_R   0.908048 0.608418 0.546717 0.029298
C3    C     C_R   0.956506 0.275147 0.436510 -0.056806
C4    C     C_R   0.048537 0.277291 0.443124 -0.134548
C5    C     C_R   0.094566 0.389485 0.476840 0.145082
C6    C     C_R   0.048274 0.500415 0.513643 0.034931
C7    C     C_R   0.096268 0.613224 0.553168 -0.015773
C8    C     C_R   0.049611 0.722029 0.595625 0.431255
C9    C     C_R   0.956348 0.717517 0.593957 -0.208976
C10   C     C_R   0.186764 0.392124 0.473382 -0.206598
C11   C     C_R   0.232924 0.503622 0.505357 -0.078604
C12   C     C_R   0.327606 0.503242 0.501361 0.870778
C13   C     C_R   0.189698 0.612802 0.548264 -0.141053
C14   C     C_R   0.630854 0.144994 0.666038 -0.041480
C15   C     C_R   0.673732 0.091674 0.770085 -0.219197
C16   C     C_R   0.644300 0.975071 0.811646 0.010188
C17   C     C_R   0.570176 0.911886 0.745931 -0.045753
C18   C     C_R   0.544176 0.951326 0.617708 -0.033215
C19   C     C_R   0.564937 0.075827 0.590224 0.102912
C20   C     C_R   0.517887 0.129350 0.488052 -0.082140
C21   C     C_R   0.470019 0.056597 0.391839 -0.152033
C22   C     C_R   0.461122 0.930040 0.404160 -0.097110
C23   C     C_R   0.499142 0.740979 0.505086 0.881002
C24   C     C_R   0.497264 0.876026 0.515594 -0.139802
C25   C     C_R   0.379770 0.338894 0.131735 -0.244858
C26   C     C_R   0.317840 0.263016 0.057175 0.475237
C27   C     C_R   0.316716 0.266583 0.917800 -0.260265
C28   C     C_R   0.376998 0.343900 0.852322 -0.218487
C29   C     C_R   0.438930 0.423703 0.924028 0.184078
C30   C     C_R   0.439661 0.422354 0.068446 0.092998
C31   C     C_R   0.561116 0.568877 0.074264 0.030174
C32   C     C_R   0.561566 0.566810 0.931083 -0.089144
C33   C     C_R   0.672665 0.492331 0.498069 0.925371
C34   C     C_R   0.814207 0.605838 0.540572 -0.076687
C35   C     C_R   0.768849 0.493651 0.494546 -0.277512
C36   C     C_R   0.815217 0.385959 0.445093 0.359079
C37   C     C_R   0.908160 0.385719 0.463247 0.005451
C38   C     C_R   0.954519 0.498128 0.508837 -0.018180
H1    H     H_    0.653127 0.238008 0.640235 0.172682
H2    H     H_    0.728224 0.143516 0.821143 0.165337
H3    H     H_    0.425001 0.874113 0.326440 0.201703
H4    H     H_    0.380618 0.328931 0.237865 0.227381
H5    H     H_    0.269433 0.207871 0.858721 0.208243
H6    H     H_    0.373563 0.336474 0.745299 0.227242
H7    H     H_    0.611977 0.619510 0.878075 0.191805
H8    H     H_    0.924734 0.185026 0.410461 0.241717
H9    H     H_    0.083852 0.191197 0.419439 0.195198
H10   H     H_    0.223078 0.307787 0.446257 0.182104
H11   H     H_    0.230108 0.695964 0.575848 0.199195
H12   H     H_    0.921906 0.800540 0.630665 0.230470
H13   H     H_    0.438229 0.098072 0.308800 0.215043
N1    N     N_R   0.499150 0.498800 0.142780 -0.141585
N2    N     N_R   0.499120 0.498720 0.857170 -0.132865
O1    O     O_R   0.500000 0.316780 0.614690 -0.662600
O2    O     O_R   0.499990 0.316750 0.385360 -0.599710
O3    O     O_R   0.367850 0.499980 0.614680 -0.635067
O4    O     O_R   0.367840 0.499960 0.385350 -0.623122
O5    O     O_R   0.500010 0.683250 0.614640 -0.659245
O6    O     O_R   0.500000 0.683220 0.385310 -0.572991
O7    O     O_R   0.632160 0.500040 0.614650 -0.653952
O8    O     O_R   0.632150 0.500020 0.385320 -0.586317
Zn1   Zn    Zn3+2 0.500010 0.500020 0.653130 0.940354
Zn2   Zn    Zn3+2 0.499990 0.499980 0.346870 1.017754
C39   C     C_2   0.762118 0.721170 0.574217 0.418127
H14   H     H_    0.705767 0.718435 0.643936 0.098850
O9    O     O_2   0.779323 0.818229 0.519018 -0.533323
C40   C     C_2   0.692266 0.924639 0.924571 0.553300
H15   H     H_    0.724840 0.988244 0.999666 0.102995
O10   O     O_2   0.700879 0.811985 0.930186 -0.598111
C41   C     C_2   0.500843 0.849415 0.830132 0.460098
H16   H     H_    0.436251 0.821317 0.787666 0.102275
O11   O     O_2   0.511422 0.837891 0.950404 -0.535297
C42   C     C_2   0.631055 0.642984 0.147787 0.609264
H17   H     H_    0.695725 0.602650 0.162304 0.054224
O12   O     O_2   0.617969 0.751061 0.189107 -0.500308
S1    S     S_3+6 0.239359 0.164654 0.136535 0.022752
O13   O     O_2   0.152395 0.231431 0.152037 -0.274045
O14   O     O_2   0.224862 0.045128 0.050055 -0.225205
O15   O     O_3   0.274858 0.130082 0.289250 -0.649825
H18   H     H_    0.229058 0.070051 0.322145 0.400581
S2    S     S_3+6 0.762664 0.255082 0.349983 -0.018445
O16   O     O_2   0.668977 0.276692 0.307703 -0.305318
O17   O     O_2   0.817412 0.227415 0.223966 -0.289506
O18   O     O_3   0.762289 0.128165 0.442119 -0.570769
H19   H     H_    0.735092 0.059331 0.383144 0.416416
S3    S     S_3+6 0.105053 0.865068 0.652114 0.028179
O19   O     O_2   0.038829 0.964677 0.691263 -0.265709
O20   O     O_2   0.161197 0.842438 0.772333 -0.268751
O21   O     O_3   0.171693 0.915120 0.527425 -0.586249
H20   H     H_    0.206013 0.988180 0.568891 0.372130

loop_
_geom_bond_atom_site_label_1
_geom_bond_atom_site_label_2
_ccdc_geom_bond_type
O5    Zn1   S    
C23   O5    A    
C32   H7    S    
C35   C36   A    
S1    O15   S    
C31   N1    A    
S2    O16   D    
C7    C8    A    
C23   O6    A    
C26   C27   A    
C29   C30   A    
C18   C24   A    
C36   C37   A    
S1    O14   D    
C34   C35   A    
C5    C6    A    
S3    O20   D    
C31   C42   S    
C22   H3    S    
C15   C16   A    
O7    Zn1   S    
C18   C19   A    
C42   H17   S    
O8    Zn2   S    
C14   H1    S    
C19   C20   A    
C8    C9    A    
O2    Zn2   S    
C26   S1    S    
C23   C24   S    
C6    C38   A    
C41   H16   S    
C8    S3    S    
C2    C34   A    
C17   C41   S    
C21   C22   A    
C42   O12   D    
S2    O17   D    
O4    Zn2   S    
C40   H15   S    
O18   H19   S    
S3    O19   D    
C16   C17   A    
O1    Zn1   S    
C25   C26   A    
C28   H6    S    
S3    O21   S    
C40   O10   D    
C39   O9    D    
C1    O1    A    
C37   C38   A    
N2    Zn1   S    
C2    C38   A    
C31   C32   A    
C36   S2    S    
C34   C39   S    
C17   C18   A    
C16   C40   S    
S1    O13   D    
C12   O3    A    
C13   H11   S    
C12   O4    A    
C33   O7    A    
C10   H10   S    
O3    Zn1   S    
C3    C4    A    
C32   N2    A    
C21   H13   S    
S2    O18   S    
C25   C30   A    
C30   N1    A    
C28   C29   A    
C1    C20   S    
C14   C19   A    
C9    H12   S    
C4    C5    A    
N1    Zn2   S    
C25   H4    S    
C11   C12   S    
C6    C7    A    
C3    H8    S    
O6    Zn2   S    
C39   H14   S    
C1    O2    A    
C5    C10   A    
C11   C13   A    
C29   N2    A    
C33   C35   S    
C22   C24   A    
C15   H2    S    
C10   C11   A    
O15   H18   S    
C27   H5    S    
C7    C13   A    
C20   C21   A    
C3    C37   A    
C33   O8    A    
C27   C28   A    
C14   C15   A    
C41   O11   D    
O21   H20   S    
C2    C9    A    
C4    H9    S    
