data_mof_unit_53120.cif
_audit_creation_date              2012-12-11T16:53:31-0500
_audit_creation_method            fapswitch 2.2
_symmetry_space_group_name_H-M    P1
_symmetry_Int_Tables_number       1
_space_group_crystal_system       triclinic
_cell_length_a                    14.854933
_cell_length_b                    14.729486
_cell_length_c                    17.244959
_cell_angle_alpha                 108.917589
_cell_angle_beta                  106.223814
_cell_angle_gamma                 108.437154
_cell_volume                      3064.3049688

loop_
_atom_site_label
_atom_site_type_symbol
_atom_type_description
_atom_site_fract_x
_atom_site_fract_y
_atom_site_fract_z
_atom_type_partial_charge
C1    C     C_R   0.086416 0.282375 0.071545 -0.143121
C2    C     C_R   0.030494 0.575023 0.746683 0.051345
C3    C     C_R   0.674277 0.207652 0.738927 0.114214
C4    C     C_R   0.285113 0.456769 0.961436 0.086019
C5    C     C_R   0.221715 0.704019 0.263644 -0.103216
C6    C     C_R   0.702750 0.495958 0.916291 -0.154214
C7    C     C_R   0.886696 0.414543 0.179730 -0.133230
C8    C     C_R   0.082360 0.801920 0.005240 -0.089376
C9    C     C_R   0.910440 0.718431 0.933870 -0.131631
C10   C     C_R   0.061255 0.494625 0.257294 -0.061482
C11   C     C_R   0.237547 0.801567 0.187749 0.480499
C12   C     C_R   0.936931 0.515438 0.746444 -0.116958
C13   C     C_R   0.698049 0.406414 0.997494 -0.047776
C14   C     C_R   0.249221 0.807417 0.273251 -0.057176
C15   C     C_R   0.636757 0.432731 0.940633 0.131824
C16   C     C_R   0.966496 0.451048 0.262382 0.116957
C17   C     C_R   0.995878 0.815054 0.964094 0.079374
C18   C     C_R   0.398852 0.470365 0.881140 0.152680
C19   C     C_R   0.346918 0.416791 0.920969 -0.032948
C20   C     C_R   0.365586 0.332167 0.929249 -0.303016
C21   C     C_R   0.452315 0.319852 0.919127 0.536632
C22   C     C_R   0.523452 0.398898 0.906556 -0.154236
C23   C     C_R   0.726882 0.208293 0.819712 -0.062994
C24   C     C_R   0.486162 0.462027 0.874580 0.122877
C25   C     C_3   0.539647 0.577757 0.895382 -0.479197
C26   C     C_3   0.443778 0.586602 0.902321 -0.475116
C27   C     C_R   0.954217 0.460480 0.344082 0.043667
C28   C     C_R   0.044500 0.590251 0.671902 0.084757
C29   C     C_R   0.136592 0.566700 0.578750 -0.045920
C30   C     C_R   0.137186 0.597553 0.663177 -0.126259
C31   C     C_R   0.956915 0.569390 0.599617 -0.129755
C32   C     C_R   0.953520 0.534655 0.513407 -0.056781
C33   C     C_R   0.043945 0.529785 0.503728 0.143287
C34   C     C_R   0.253636 0.529932 0.945937 -0.079484
C35   C     C_R   0.041444 0.487822 0.419238 -0.175409
C36   C     C_R   0.863430 0.463023 0.351746 -0.254755
C37   C     C_R   0.861449 0.498908 0.436088 0.538577
C38   C     C_R   0.568758 0.128117 0.669164 0.071646
C39   C     C_R   0.287452 0.901418 0.360415 -0.038457
C40   C     C_R   0.388616 0.091797 0.454174 -0.156719
C41   C     C_R   0.321331 0.005824 0.369530 -0.134906
C42   C     C_R   0.294871 0.887365 0.438488 0.445999
C43   C     C_R   0.381435 0.966843 0.519992 -0.198627
C44   C     C_R   0.427376 0.071287 0.527145 0.104604
C45   C     C_R   0.732764 0.305198 0.743416 -0.133431
C46   C     C_R   0.516604 0.151724 0.603292 -0.188803
C47   C     C_R   0.523077 0.026310 0.664319 -0.256163
C48   C     C_R   0.429672 0.944800 0.590658 0.580270
C49   C     C_R   0.076871 0.116845 0.143180 0.177617
C50   C     C_R   0.993004 0.101238 0.069223 0.021219
C51   C     C_R   0.899772 0.004599 0.028618 -0.190719
C52   C     C_R   0.887324 0.935260 0.069309 -0.183376
C53   C     C_R   0.967782 0.960525 0.150300 0.049159
C54   C     C_R   0.064442 0.047336 0.182236 0.177552
C55   C     C_3   0.132236 0.135890 0.275817 -0.468693
C56   C     C_R   0.252743 0.436149 0.025043 -0.105676
C57   C     C_3   0.145894 0.212456 0.233763 -0.506739
C58   C     C_R   0.110440 0.603585 0.826155 -0.132550
C59   C     C_R   0.913426 0.197401 0.992850 -0.114230
C60   C     C_R   0.998659 0.185998 0.039474 0.078022
H1    H     H_    0.679412 0.516997 0.862006 0.111225
H2    H     H_    0.160963 0.854204 0.021050 0.205800
H3    H     H_    0.830372 0.695232 0.890683 0.109080
H4    H     H_    0.672602 0.350842 0.023599 0.172719
H5    H     H_    0.317707 0.280616 0.949478 0.188164
H6    H     H_    0.550611 0.587398 0.836835 0.194498
H7    H     H_    0.795899 0.442212 0.292789 0.194647
H8    H     H_    0.206578 0.565809 0.571526 0.138095
H9    H     H_    0.206690 0.615567 0.719094 0.111067
H10   H     H_    0.548914 0.230591 0.606891 0.127253
H11   H     H_    0.698650 0.151090 0.844037 0.106964
H12   H     H_    0.563259 0.008348 0.715672 0.177368
H13   H     H_    0.300066 0.021469 0.312244 0.199078
H14   H     H_    0.813167 0.865100 0.040727 0.142774
H15   H     H_    0.205853 0.131523 0.307635 0.202557
H16   H     H_    0.109931 0.267346 0.251698 0.193359
H17   H     H_    0.262139 0.560831 0.898544 0.100628
H18   H     H_    0.227566 0.252139 0.241952 0.214439
H19   H     H_    0.264614 0.382525 0.052597 0.113571
H20   H     H_    0.191424 0.661337 0.853352 0.123051
H21   H     H_    0.831751 0.145736 0.971148 0.100841
H22   H     H_    0.229325 0.679880 0.316590 0.184470
N1    N     N_R   0.055640 0.348550 0.045600 -0.047504
N2    N     N_R   0.798340 0.505430 0.954400 -0.045789
N3    N     N_R   0.931580 0.439470 0.128350 -0.045986
N4    N     N_R   0.051950 0.704140 0.002340 -0.058365
N5    N     N_R   0.944360 0.651450 0.954400 -0.049355
N6    N     N_R   0.039170 0.492150 0.176290 -0.050110
N7    N     N_R   0.188710 0.696600 0.128350 -0.086299
N8    N     N_R   0.794820 0.447010 0.002340 -0.056341
N9    N     N_R   0.960830 0.507850 0.823710 -0.044381
N10   N     N_R   0.811290 0.303400 0.871650 -0.050449
N11   N     N_R   0.205180 0.552990 0.997660 -0.031238
N12   N     N_R   0.814810 0.361830 0.823710 -0.047202
N13   N     N_R   0.201660 0.494570 0.045600 -0.048392
N14   N     N_R   0.068420 0.560530 0.871650 -0.042831
N15   N     N_R   0.948050 0.295860 0.997660 -0.046849
N16   N     N_R   0.185190 0.638170 0.176290 -0.081334
Ni1   Ni    Ni4+2 0.119330 0.493420 0.109950 0.228713
Ni2   Ni    Ni4+2 0.880670 0.506580 0.890050 0.215199
Ni3   Ni    Ni4+2 0.872590 0.372590 0.000000 0.234064
Ni4   Ni    Ni4+2 0.127410 0.627410 0.000000 0.292307
H23   H     H_    0.163901 0.308004 0.121292 0.109768
H24   H     H_    0.803464 0.368731 0.157055 0.120679
H25   H     H_    0.139277 0.521609 0.306685 0.116174
S1    S     S_3+6 0.328458 0.895640 0.170752 -0.062331
O1    O     O_2   0.298130 0.983012 0.167669 -0.344490
O2    O     O_2   0.435319 0.945044 0.246942 -0.250599
O3    O     O_3   0.332738 0.831410 0.072468 -0.568692
H26   H     H_    0.384078 0.887975 0.066647 0.387013
S2    S     S_3+6 0.464213 0.204921 0.920981 -0.043272
O4    O     O_2   0.511404 0.223781 0.017397 -0.295828
O5    O     O_2   0.356870 0.111239 0.872359 -0.244729
O6    O     O_3   0.538747 0.176147 0.868953 -0.578993
H27   H     H_    0.534051 0.106793 0.867021 0.372329
H28   H     H_    0.610341 0.627344 0.961279 0.204585
H29   H     H_    0.857919 0.486589 0.697529 0.120777
H30   H     H_    0.460006 0.640966 0.972077 0.217535
H31   H     H_    0.399748 0.601052 0.847607 0.189298
H32   H     H_    0.110260 0.482197 0.412914 0.126544
S3    S     S_3+6 0.744327 0.500192 0.441571 -0.027652
O7    O     O_2   0.704816 0.428876 0.482305 -0.315340
O8    O     O_2   0.766852 0.612899 0.500068 -0.265439
O9    O     O_3   0.651555 0.455709 0.337574 -0.511022
H33   H     H_    0.589581 0.458344 0.347258 0.384719
H34   H     H_    0.888957 0.570573 0.610196 0.184821
H35   H     H_    0.419649 0.172135 0.459972 0.152400
S4    S     S_3+6 0.389212 0.814659 0.584333 -0.013437
O10   O     O_2   0.299709 0.790371 0.611047 -0.227147
O11   O     O_2   0.355681 0.732193 0.489873 -0.310825
O12   O     O_3   0.488401 0.808935 0.655889 -0.549593
H36   H     H_    0.457659 0.736475 0.652078 0.368394
S5    S     S_3+6 0.174107 0.821654 0.442102 0.019279
O13   O     O_2   0.154067 0.710739 0.430674 -0.232275
O14   O     O_2   0.176028 0.884776 0.531251 -0.226352
O15   O     O_3   0.074788 0.811402 0.357818 -0.512833
H37   H     H_    0.086720 0.886296 0.372721 0.339929
H38   H     H_    0.834143 0.985569 0.968810 0.143471
H39   H     H_    0.088376 0.146286 0.318135 0.200404
H40   H     H_    0.711626 0.338669 0.698036 0.107568

loop_
_geom_bond_atom_site_label_1
_geom_bond_atom_site_label_2
_ccdc_geom_bond_type
C56   N13   A    
N14   Ni4   S    
C13   N8    A    
C12   N9    A    
C3    C23   A    
C19   C20   A    
C18   C26   S    
C34   N11   A    
C2    C12   A    
S4    O10   D    
O6    H27   S    
C36   H7    S    
C55   H39   S    
C39   C41   A    
C53   C54   A    
C10   N6    A    
C56   H19   S    
C42   S5    S    
C18   C24   A    
C57   H16   S    
C36   C37   A    
C52   H14   S    
C34   H17   S    
N7    Ni4   S    
C11   C14   A    
N13   Ni1   S    
S1    O1    D    
C49   C54   A    
C29   C33   A    
C49   C57   S    
S3    O8    D    
C18   C19   A    
C58   N14   A    
N9    N14   A    
S3    O9    S    
C6    C15   A    
C4    C19   S    
C15   C22   S    
C47   C48   A    
C3    C38   S    
S5    O15   S    
N9    Ni2   S    
C5    C14   A    
C43   C48   A    
C1    H23   S    
C58   H20   S    
C55   H15   S    
C16   C27   S    
C14   C39   S    
C59   C60   A    
N11   N13   A    
N1    Ni1   S    
C21   C22   A    
C4    C56   A    
C35   H32   S    
N2    N8    A    
C45   N12   A    
C21   S2    S    
C44   C46   A    
C39   C42   A    
C4    C34   A    
C6    N2    A    
C51   C52   A    
N2    Ni2   S    
C23   H11   S    
C20   H5    S    
C26   H31   S    
C1    C60   A    
N4    N5    A    
C27   C35   A    
C25   C26   S    
C40   H35   S    
C3    C45   A    
C45   H40   S    
C43   C44   A    
N8    Ni3   S    
C29   C30   A    
C48   S4    S    
C29   H8    S    
C11   N7    A    
C31   C32   A    
N12   Ni2   S    
C20   C21   A    
C11   S1    S    
N10   N12   A    
C50   C51   A    
C38   C47   A    
S2    O5    D    
C32   C37   A    
C24   C25   S    
S3    O7    D    
N10   Ni3   S    
C37   S3    S    
C9    C17   A    
C7    C16   A    
N16   Ni1   S    
C7    H24   S    
C55   C57   S    
S5    O13   D    
C59   N15   A    
C22   C24   A    
C25   H28   S    
C42   C43   A    
O12   H36   S    
N4    Ni4   S    
S4    O12   S    
C30   H9    S    
N3    Ni3   S    
C52   C53   A    
C6    H1    S    
N5    Ni2   S    
N3    N6    A    
C54   C55   S    
C40   C41   A    
S2    O4    D    
C9    H3    S    
C57   H18   S    
C28   C31   A    
C25   H6    S    
C59   H21   S    
O15   H37   S    
S4    O11   D    
N11   Ni4   S    
C2    C58   A    
C27   C36   A    
C1    N1    A    
C26   H30   S    
C8    C17   A    
N7    N16   A    
C50   C60   S    
C32   C33   A    
C13   C15   A    
C10   C16   A    
O3    H26   S    
C9    N5    A    
C38   C46   A    
C5    H22   S    
C7    N3    A    
C13   H4    S    
S1    O2    D    
C28   C30   A    
C33   C35   A    
S2    O6    S    
C8    N4    A    
C47   H12   S    
C46   H10   S    
N6    Ni1   S    
C41   H13   S    
C12   H29   S    
C51   H38   S    
C40   C44   A    
C5    N16   A    
C49   C50   A    
N1    N15   A    
S5    O14   D    
C23   N10   A    
C10   H25   S    
C2    C28   S    
C31   H34   S    
N15   Ni3   S    
C8    H2    S    
O9    H33   S    
S1    O3    S    
