data_mof_unit_49990.cif
_audit_creation_date              2012-12-10T18:45:07-0500
_audit_creation_method            fapswitch 2.2
_symmetry_space_group_name_H-M    P1
_symmetry_Int_Tables_number       1
_space_group_crystal_system       triclinic
_cell_length_a                    10.686703
_cell_length_b                    9.850205
_cell_length_c                    10.65104
_cell_angle_alpha                 90.135063
_cell_angle_beta                  90.054577
_cell_angle_gamma                 89.771669
_cell_volume                      1121.1821533

loop_
_atom_site_label
_atom_site_type_symbol
_atom_type_description
_atom_site_fract_x
_atom_site_fract_y
_atom_site_fract_z
_atom_type_partial_charge
C1    C     C_R   0.260229 0.500494 0.503673 0.870920
C2    C     C_R   0.739742 0.499808 0.504851 0.886635
C3    C     C_R   0.934611 0.593310 0.592679 -0.089318
C4    C     C_R   0.065115 0.594146 0.591031 -0.077740
C5    C     C_R   0.573482 0.071821 0.582082 -0.056075
C6    C     C_R   0.426333 0.072027 0.418079 -0.059632
C7    C     C_R   0.573318 0.928017 0.582186 -0.050962
C8    C     C_R   0.426353 0.928187 0.418063 -0.018880
C9    C     C_R   0.504821 0.499868 0.260439 0.867766
C10   C     C_R   0.504624 0.500057 0.739605 0.913189
C11   C     C_R   0.703768 0.353003 0.130708 -0.179276
C12   C     C_R   0.703066 0.351583 0.869134 -0.125304
C13   C     C_R   0.795523 0.281079 0.065221 -0.130995
C14   C     C_R   0.795095 0.280266 0.934651 -0.120741
C15   C     C_R   0.608220 0.423878 0.934081 0.111692
C16   C     C_R   0.608420 0.424236 0.065802 0.089838
C17   C     C_R   0.514873 0.500148 0.128238 -0.103020
C18   C     C_R   0.515096 0.500547 0.871837 -0.101812
C19   C     C_R   0.428816 0.580511 0.064230 -0.198229
C20   C     C_R   0.429502 0.581320 0.936151 -0.198256
C21   C     C_R   0.064036 0.407507 0.438148 -0.167407
C22   C     C_R   0.936285 0.405639 0.440486 -0.185981
C23   C     C_R   0.872111 0.499331 0.514676 -0.101677
C24   C     C_R   0.127803 0.502058 0.511068 -0.109232
H1    H     H_    0.359094 0.640409 0.113729 0.164161
H2    H     H_    0.361019 0.642576 0.886861 0.197871
H3    H     H_    0.710099 0.354186 0.231880 0.148976
H4    H     H_    0.709371 0.351987 0.767914 0.160985
H5    H     H_    0.868065 0.227228 0.115987 0.141822
H6    H     H_    0.867326 0.225808 0.883897 0.155801
H7    H     H_    0.113293 0.336544 0.377661 0.153649
H8    H     H_    0.887376 0.333555 0.381314 0.148170
H9    H     H_    0.632309 0.126121 0.647720 0.134134
H10   H     H_    0.367373 0.126555 0.352590 0.131784
H11   H     H_    0.631703 0.873591 0.648091 0.156406
H12   H     H_    0.367401 0.873821 0.352577 0.134522
N1    N     N_R   0.500000 0.857200 0.500000 -0.087289
N2    N     N_R   0.500000 0.142810 0.500000 -0.088800
O1    O     O_R   0.316770 0.614620 0.499990 -0.591214
O2    O     O_R   0.683230 0.614620 0.500010 -0.607445
O3    O     O_R   0.316800 0.385290 0.500000 -0.614296
O4    O     O_R   0.683200 0.385290 0.500000 -0.639801
O5    O     O_R   0.500010 0.614690 0.316770 -0.619617
O6    O     O_R   0.499990 0.614690 0.683230 -0.609801
O7    O     O_R   0.500040 0.385360 0.316770 -0.628002
O8    O     O_R   0.499960 0.385360 0.683230 -0.633189
Zn1   Zn    Zn3+2 0.500000 0.653120 0.500000 0.984469
Zn2   Zn    Zn3+2 0.500000 0.346880 0.500000 0.951691
C25   C     C_2   0.865176 0.687152 0.677751 0.934444
O9    O     O_2   0.890354 0.808165 0.679489 -0.625262
O10   O     O_R   0.772404 0.636505 0.756799 -0.826074
H13   H     H_    0.733186 0.709557 0.811405 0.338756
C26   C     C_2   0.134391 0.681347 0.680906 0.943557
O11   O     O_2   0.136557 0.651235 0.792132 -0.656704
O12   O     O_R   0.192033 0.800102 0.639204 -0.756428
H14   H     H_    0.235845 0.850825 0.709436 0.337220

loop_
_geom_bond_atom_site_label_1
_geom_bond_atom_site_label_2
_ccdc_geom_bond_type
C10   O8    A    
C15   C18   A    
O12   H14   S    
C6    N2    A    
C9    O7    A    
C13   C14   A    
C4    C26   S    
N1    Zn1   S    
O6    Zn1   S    
C11   C13   A    
C11   C16   A    
C22   H8    S    
C3    C23   A    
C19   C20   A    
C12   C15   A    
C11   H3    S    
C6    H10   S    
C3    C25   S    
O4    Zn2   S    
C26   O11   D    
C1    O3    A    
C21   H7    S    
C20   H2    S    
C14   H6    S    
C19   H1    S    
C10   C18   S    
C9    C17   S    
C17   C19   A    
O3    Zn2   S    
C2    O4    A    
C18   C20   A    
C26   O12   S    
C7    N1    A    
C4    C24   A    
O8    Zn2   S    
C9    O5    A    
C8    N1    A    
C1    O1    A    
C10   O6    A    
C15   C16   A    
C2    O2    A    
C7    H11   S    
N2    Zn2   S    
C5    N2    A    
C12   H4    S    
C1    C24   S    
O1    Zn1   S    
C25   O9    D    
C8    H12   S    
C21   C24   A    
C13   H5    S    
C2    C23   S    
C5    C7    A    
C22   C23   A    
C6    C8    A    
O7    Zn2   S    
C21   C22   A    
O2    Zn1   S    
O5    Zn1   S    
C3    C4    A    
O10   H13   S    
C12   C14   A    
C16   C17   A    
C25   O10   S    
C5    H9    S    
