data_mof_unit_5945.cif
_audit_creation_date              2012-12-11T15:39:21-0500
_audit_creation_method            fapswitch 2.2
_symmetry_space_group_name_H-M    P1
_symmetry_Int_Tables_number       1
_space_group_crystal_system       triclinic
_cell_length_a                    14.307637
_cell_length_b                    14.766733
_cell_length_c                    33.280645
_cell_angle_alpha                 98.100209
_cell_angle_beta                  90.199065
_cell_angle_gamma                 118.68324
_cell_volume                      6086.54251923

loop_
_atom_site_label
_atom_site_type_symbol
_atom_type_description
_atom_site_fract_x
_atom_site_fract_y
_atom_site_fract_z
_atom_type_partial_charge
C1    C     C_R   0.617173 0.909377 0.437140 0.596934
C2    C     C_R   0.711466 0.435050 0.949559 0.542513
C3    C     C_R   0.548824 0.821986 0.773649 0.322298
C4    C     C_R   0.554067 0.829611 0.731465 0.258126
C5    C     C_R   0.590343 0.770021 0.705406 0.003893
C6    C     C_R   0.603953 0.690879 0.719839 0.227087
C7    C     C_R   0.594425 0.680845 0.761109 0.280039
C8    C     C_R   0.571856 0.748956 0.788189 0.002184
C9    C     C_R   0.533856 0.728282 0.631382 0.181180
C10   C     C_R   0.542573 0.762115 0.593643 -0.182771
C11   C     C_R   0.713488 0.915433 0.617374 0.241753
C12   C     C_3   0.490088 0.300998 0.087828 -0.054892
C13   C     C_R   0.711487 0.739261 0.949369 0.578049
C14   C     C_3   0.995436 0.565417 0.196241 -0.054345
C15   C     C_3   0.790879 0.168422 0.400630 -0.046681
C16   C     C_3   0.307071 0.815414 0.072835 -0.092910
C17   C     C_3   0.202058 0.649836 0.286598 -0.125807
C18   C     C_3   0.207445 0.075006 0.416143 -0.039491
C19   C     C_3   0.955924 0.865196 0.209671 -0.059239
C20   C     C_3   0.916789 0.042195 0.327821 -0.123015
C21   C     C_3   0.409493 0.679011 0.375567 -0.062771
C22   C     C_3   0.451620 0.708765 0.186962 -0.021278
C23   C     C_3   0.465684 0.882447 0.292247 -0.116609
C24   C     C_R   0.830309 0.447665 0.166543 0.308892
C25   C     C_3   0.952350 0.454075 0.385491 -0.086931
C26   C     C_3   0.839928 0.231073 0.608664 -0.018433
C27   C     C_3   0.437238 0.313728 0.619014 -0.099871
C28   C     C_3   0.433926 0.189103 0.804696 -0.061175
C29   C     C_3   0.448111 0.262628 0.921650 -0.078648
C30   C     C_3   0.085293 0.546981 0.887476 -0.043418
C31   C     C_3   0.001182 0.647568 0.643187 -0.074725
C32   C     C_3   0.247135 0.655201 0.708462 -0.042714
C33   C     C_3   0.179381 0.058238 0.876357 -0.032015
C34   C     C_3   0.164572 0.060914 0.724165 -0.106897
C35   C     C_R   0.825685 0.448627 0.124590 0.179455
C36   C     C_3   0.952507 0.856572 0.792385 -0.128514
C37   C     C_3   0.952442 0.594893 0.790844 -0.085288
C38   C     C_3   0.028274 0.831167 0.560408 -0.083423
C39   C     C_3   0.432023 0.594492 0.934430 -0.067390
C40   C     C_3   0.853292 0.907400 0.691515 -0.099148
C41   C     C_3   0.539447 0.976878 0.795123 -0.027682
C42   C     C_3   0.355456 0.602821 0.826376 -0.070202
C43   C     C_3   0.707565 0.628060 0.784288 -0.068233
C44   C     C_3   0.741566 0.017350 0.856640 -0.086042
C45   C     C_R   0.729366 0.326756 0.242156 0.230615
C46   C     C_R   0.715320 0.310532 0.282979 0.243743
C47   C     C_R   0.727763 0.393179 0.313327 0.056522
C48   C     C_R   0.752232 0.491695 0.303140 0.303855
C49   C     C_R   0.758621 0.505302 0.262277 0.257150
C50   C     C_R   0.745232 0.421679 0.231742 -0.020363
C51   C     C_R   0.740303 0.428717 0.188169 -0.041529
C52   C     C_R   0.607752 0.354183 0.369867 0.194505
C53   C     C_R   0.594083 0.205533 0.456335 0.595803
C54   C     C_R   0.577172 0.311725 0.406353 0.197006
C55   C     C_R   0.736663 0.291095 0.408862 0.211741
C56   C     C_R   0.773347 0.347047 0.376340 0.255135
C57   C     C_R   0.705217 0.370101 0.355002 0.024259
C58   C     C_R   0.637563 0.272311 0.424119 -0.008213
C59   C     C_R   0.241705 0.876752 0.393533 -0.023609
C60   C     C_R   0.250497 0.963940 0.377175 0.242514
C61   C     C_R   0.226370 0.955252 0.335571 0.212615
C62   C     C_R   0.705049 0.881915 0.655863 0.235880
C63   C     C_R   0.189296 0.857842 0.310074 -0.034951
C64   C     C_R   0.169609 0.768406 0.326612 0.249317
C65   C     C_R   0.294969 0.892588 0.434405 0.605525
C66   C     C_R   0.193725 0.777395 0.368790 0.221055
C67   C     C_R   0.205413 0.804250 0.159426 0.213786
C68   C     C_R   0.182536 0.795788 0.117673 0.290587
C69   C     C_R   0.082854 0.890458 0.132609 0.176118
C70   C     C_R   0.099809 0.892942 0.174267 0.288987
C71   C     C_R   0.160154 0.849507 0.187761 -0.074573
C72   C     C_1   0.170655 0.849120 0.230652 -0.013151
C73   C     C_R   0.612314 0.791305 0.663165 0.018431
C74   C     C_1   0.177752 0.850777 0.266710 0.014376
C75   C     C_R   0.113934 0.831246 0.103970 -0.097751
C76   C     C_R   0.636671 0.877822 0.395155 -0.028834
C77   C     C_R   0.613602 0.904295 0.551681 0.568184
C78   C     C_R   0.550709 0.829752 0.364699 0.204126
C79   C     C_R   0.571086 0.833889 0.323756 0.244738
C80   C     C_R   0.675825 0.870991 0.312515 -0.013217
C81   C     C_R   0.761561 0.907043 0.342165 0.235133
C82   C     C_R   0.741919 0.910425 0.383997 0.181159
C83   C     C_R   0.778837 0.939738 0.172284 0.180096
C84   C     C_R   0.627552 0.859063 0.587190 -0.001640
C85   C     C_R   0.783092 0.923411 0.129358 0.219757
C86   C     C_R   0.624177 0.751717 0.124674 0.188531
C87   C     C_R   0.619244 0.769324 0.166773 0.267572
C88   C     C_R   0.699126 0.860504 0.190522 -0.029987
C89   C     C_R   0.589457 0.200044 0.571202 0.592445
C90   C     C_1   0.699272 0.869873 0.234047 0.091231
C91   C     C_1   0.692976 0.872229 0.270092 0.100540
C92   C     C_R   0.712628 0.824463 0.106217 -0.041191
C93   C     C_R   0.620634 0.251370 0.614840 -0.019544
C94   C     C_R   0.541146 0.250303 0.640526 0.232829
C95   C     C_R   0.053141 0.782173 0.063604 0.547607
C96   C     C_R   0.561546 0.269112 0.683273 0.236591
C97   C     C_R   0.663540 0.298088 0.700375 -0.017290
C98   C     C_R   0.747878 0.314670 0.675075 0.199632
C99   C     C_R   0.725462 0.289267 0.632332 0.246646
C100  C     C_R   0.761441 0.322972 0.847957 0.241114
C101  C     C_R   0.291030 0.888194 0.548942 0.572578
C102  C     C_R   0.764141 0.343915 0.890945 0.192373
C103  C     C_R   0.591273 0.338316 0.884851 0.247404
C104  C     C_R   0.586544 0.312186 0.842398 0.241449
C105  C     C_R   0.675621 0.313809 0.824030 -0.041005
C106  C     C_R   0.743226 0.484941 0.065897 0.537453
C107  C     C_1   0.679400 0.309552 0.780480 0.077719
C108  C     C_1   0.676757 0.306069 0.744058 0.055898
C109  C     C_R   0.685505 0.365449 0.909134 -0.082189
C110  C     C_R   0.080249 0.761675 0.911870 -0.075010
C111  C     C_R   0.141983 0.868330 0.907770 0.176966
C112  C     C_R   0.167058 0.894908 0.868825 0.300154
C113  C     C_R   0.735316 0.444800 0.104999 -0.104961
C114  C     C_R   0.137145 0.814661 0.835217 -0.031252
C115  C     C_R   0.082447 0.708691 0.839998 0.213542
C116  C     C_R   0.059189 0.682482 0.878691 0.216406
C117  C     C_R   0.741841 0.790193 0.066185 0.567188
C118  C     C_R   0.227783 0.801918 0.772914 0.242922
C119  C     C_R   0.232784 0.802903 0.731049 0.296819
C120  C     C_R   0.188672 0.854895 0.712391 0.017864
C121  C     C_R   0.134923 0.900964 0.734398 0.255523
C122  C     C_R   0.117786 0.888407 0.775033 0.252561
C123  C     C_R   0.165091 0.839649 0.794450 -0.009633
C124  C     C_R   0.315898 0.936945 0.662827 0.276250
C125  C     C_R   0.642411 0.418347 0.126343 0.285243
C126  C     C_R   0.343595 0.939044 0.622599 0.202126
C127  C     C_R   0.154655 0.822800 0.598374 0.208385
C128  C     C_R   0.023898 0.733294 0.948323 0.555576
C129  C     C_R   0.129315 0.813024 0.638756 0.249816
C130  C     C_R   0.210299 0.870515 0.670497 0.048456
C131  C     C_R   0.261856 0.881694 0.590394 -0.026086
C132  C     C_R   0.662509 0.748123 0.911159 -0.043628
C133  C     C_R   0.562824 0.666879 0.892329 0.225408
C134  C     C_R   0.527677 0.668480 0.852892 0.278429
C135  C     C_R   0.589353 0.754429 0.832788 0.010574
C136  C     C_R   0.681039 0.841580 0.853494 0.206464
C137  C     C_R   0.644763 0.411268 0.167764 0.231899
C138  C     C_R   0.722215 0.835074 0.890935 0.170592
Cr1   Cr    Cr6+3 0.424820 0.846020 0.489780 1.043379
Cr2   Cr    Cr6+3 0.657880 0.078580 0.505700 1.073982
Cr3   Cr    Cr6+3 0.417280 0.075360 0.504550 1.072067
Cr4   Cr    Cr6+3 0.903360 0.812540 0.006510 1.089759
Cr5   Cr    Cr6+3 0.914630 0.587050 0.006280 1.078760
Cr6   Cr    Cr6+3 0.673560 0.582680 0.008540 1.085090
H1    H     H_    0.478076 0.715296 0.570110 0.139303
H2    H     H_    0.834733 0.137104 0.416380 0.174898
H3    H     H_    0.911935 0.956965 0.717767 0.198757
H4    H     H_    0.508384 0.876764 0.686583 0.364099
H5    H     H_    0.475562 0.975256 0.775514 0.212337
H6    H     H_    0.618839 0.017248 0.782701 0.162198
H7    H     H_    0.543882 0.024201 0.824792 0.076342
H8    H     H_    0.363675 0.634567 0.797584 0.171036
H9    H     H_    0.350757 0.657444 0.852052 0.082635
H10   H     H_    0.278339 0.528885 0.822842 0.144143
H11   H     H_    0.636045 0.638315 0.667118 0.332284
H12   H     H_    0.743673 0.694462 0.809972 0.074872
H13   H     H_    0.828054 0.188067 0.371654 0.161772
H14   H     H_    0.755310 0.647280 0.757424 0.128674
H15   H     H_    0.710598 0.560894 0.794286 0.153748
H16   H     H_    0.397372 0.603308 0.613564 0.321426
H17   H     H_    0.806181 0.054206 0.881664 0.155646
H18   H     H_    0.663966 0.001085 0.869229 0.128718
H19   H     H_    0.760403 0.076064 0.836218 0.155411
H20   H     H_    0.560597 0.380207 0.215367 0.337772
H21   H     H_    0.856029 0.034879 0.632685 0.347523
H22   H     H_    0.773681 0.561013 0.359613 0.314381
H23   H     H_    0.785872 0.603979 0.224334 0.302868
H24   H     H_    0.372885 0.870102 0.096410 0.127313
H25   H     H_    0.466623 0.329791 0.352294 0.359155
H26   H     H_    0.283593 0.859823 0.054482 0.082624
H27   H     H_    0.338327 0.772683 0.051951 0.135186
H28   H     H_    0.284669 0.779636 0.200625 0.299315
H29   H     H_    0.164377 0.565841 0.273123 0.157140
H30   H     H_    0.263966 0.664482 0.310702 0.163550
H31   H     H_    0.240096 0.695873 0.262062 0.119509
H32   H     H_    0.143780 0.628104 0.365490 0.337292
H33   H     H_    0.467530 0.245191 0.109903 0.139885
H34   H     H_    0.159426 0.014475 0.435077 0.089004
H35   H     H_    0.155040 0.074011 0.391091 0.142675
H36   H     H_    0.241109 0.152461 0.435928 0.152938
H37   H     H_    0.957800 0.800872 0.222876 0.119045
H38   H     H_    0.900578 0.832282 0.181515 0.140499
H39   H     H_    0.923590 0.903190 0.232323 0.190907
H40   H     H_    0.061238 0.972359 0.097361 0.350131
H41   H     H_    0.883649 0.410636 0.077114 0.333853
H42   H     H_    0.212191 0.028158 0.292940 0.346097
H43   H     H_    0.871818 0.070120 0.125169 0.344869
H44   H     H_    0.534601 0.282411 0.063610 0.077844
H45   H     H_    0.922254 0.058158 0.183948 0.372683
H46   H     H_    0.932688 0.090130 0.358492 0.100072
H47   H     H_    0.871978 0.063011 0.306838 0.142905
H48   H     H_    0.995215 0.062231 0.315588 0.176496
H49   H     H_    0.890433 0.958260 0.402398 0.355723
H50   H     H_    0.327155 0.643394 0.385328 0.164103
H51   H     H_    0.459587 0.667657 0.397897 0.116556
H52   H     H_    0.406871 0.636625 0.344786 0.140633
H53   H     H_    0.473259 0.787868 0.203726 0.109701
H54   H     H_    0.390557 0.650454 0.203684 0.171865
H55   H     H_    0.415118 0.290150 0.072950 0.151079
H56   H     H_    0.414942 0.697556 0.155875 0.193521
H57   H     H_    0.528791 0.677500 0.076270 0.313634
H58   H     H_    0.538014 0.954016 0.286148 0.119820
H59   H     H_    0.432394 0.900472 0.320530 0.159049
H60   H     H_    0.404894 0.858718 0.266583 0.112441
H61   H     H_    0.819526 0.327008 0.940811 0.323722
H62   H     H_    0.029514 0.461077 0.376185 0.146935
H63   H     H_    0.950214 0.447978 0.418478 0.159904
H64   H     H_    0.949475 0.525666 0.380493 0.143308
H65   H     H_    0.896162 0.319052 0.848624 0.368381
H66   H     H_    0.476102 0.362832 0.417722 0.326158
H67   H     H_    0.857260 0.366389 0.720565 0.328878
H68   H     H_    0.771449 0.152603 0.610559 0.180877
H69   H     H_    0.900641 0.255850 0.634541 0.172776
H70   H     H_    0.877721 0.223502 0.580257 0.146844
H71   H     H_    0.496125 0.357093 0.597650 0.129583
H72   H     H_    0.451538 0.365686 0.648679 0.162806
H73   H     H_    0.356538 0.291432 0.605625 0.141145
H74   H     H_    0.472291 0.160038 0.781149 0.139795
H75   H     H_    0.357645 0.176228 0.790303 0.160372
H76   H     H_    0.413950 0.142054 0.829795 0.117248
H77   H     H_    0.013387 0.605949 0.169211 0.157688
H78   H     H_    0.496298 0.262490 0.947910 0.101464
H79   H     H_    0.416174 0.186996 0.900591 0.130253
H80   H     H_    0.379117 0.269130 0.933794 0.142868
H81   H     H_    0.412810 0.228682 0.693565 0.355102
H82   H     H_    0.180095 0.917977 0.966003 0.317638
H83   H     H_    0.146261 0.597370 0.913238 0.087201
H84   H     H_    0.124768 0.546734 0.858770 0.135584
H85   H     H_    0.045759 0.466057 0.894255 0.176192
H86   H     H_    0.055510 0.637804 0.663965 0.105538
H87   H     H_    0.004797 0.616231 0.611163 0.178226
H88   H     H_    0.071586 0.573679 0.208632 0.170812
H89   H     H_    0.918499 0.600122 0.651607 0.161286
H90   H     H_    0.643491 0.158377 0.270564 0.326276
H91   H     H_    0.161567 0.614907 0.715271 0.111715
H92   H     H_    0.295936 0.641981 0.730477 0.180079
H93   H     H_    0.252156 0.617843 0.677809 0.146565
H94   H     H_    0.293538 0.787365 0.821319 0.328700
H95   H     H_    0.209090 0.098704 0.908102 0.157572
H96   H     H_    0.090339 0.012047 0.873941 0.154783
H97   H     H_    0.201652 0.119606 0.856914 0.141660
H98   H     H_    0.245939 0.080325 0.714926 0.141709
H99   H     H_    0.966713 0.604476 0.220173 0.125640
H100  H     H_    0.168453 0.091308 0.757004 0.160814
H101  H     H_    0.134707 0.101610 0.706578 0.138920
H102  H     H_    0.906340 0.896639 0.803010 0.176755
H103  H     H_    0.937293 0.797179 0.812192 0.091797
H104  H     H_    0.922435 0.818541 0.760235 0.124319
H105  H     H_    0.460754 0.041024 0.686178 0.383920
H106  H     H_    0.464110 0.974073 0.588400 0.338586
H107  H     H_    0.949344 0.653909 0.774405 0.079187
H108  H     H_    0.893942 0.574236 0.814513 0.141626
H109  H     H_    0.927795 0.523108 0.768331 0.155016
H110  H     H_    0.706025 0.105872 0.393977 0.110738
H111  H     H_    0.087834 0.907769 0.552322 0.110037
H112  H     H_    0.988033 0.843527 0.587558 0.159361
H113  H     H_    0.966262 0.789397 0.534504 0.150273
H114  H     H_    0.371618 0.600816 0.915666 0.097430
H115  H     H_    0.473595 0.664782 0.958448 0.079646
H116  H     H_    0.388633 0.525700 0.949986 0.149349
H117  H     H_    0.750334 0.207622 0.223450 0.354021
H118  H     H_    0.868402 0.938132 0.884003 0.339274
H119  H     H_    0.898031 0.912858 0.663856 0.152630
H120  H     H_    0.813148 0.825693 0.697782 0.128868
O1    O     O_R   0.318160 0.824460 0.443680 -0.431045
O2    O     O_R   0.668160 0.499860 0.053480 -0.446697
O3    O     O_R   0.689170 0.693840 0.050110 -0.497736
O4    O     O_R   0.525040 0.857250 0.449830 -0.472417
O5    O     O_R   0.803860 0.812940 0.962540 -0.441342
O6    O     O_R   0.982950 0.787950 0.964120 -0.487915
O7    O     O_R   0.007050 0.649970 0.960540 -0.466780
O8    O     O_R   0.807910 0.482370 0.965590 -0.476280
O9    O     O_R   0.643310 0.460980 0.963840 -0.459843
O10   O     O_R   0.666140 0.657800 0.967020 -0.470637
O11   O     O_3   0.830520 0.660760 0.007110 -0.278155
O12   O     O_R   0.645130 0.163230 0.552140 -0.486168
O13   O     O_R   0.684760 0.998800 0.456360 -0.482133
O14   O     O_R   0.647540 0.166310 0.470260 -0.470614
O15   O     O_R   0.500960 0.181750 0.467450 -0.431167
O16   O     O_R   0.331100 0.981120 0.457080 -0.478874
O17   O     O_R   0.315560 0.821140 0.532010 -0.507562
O18   O     O_R   0.522630 0.854180 0.531710 -0.535687
O19   O     O_R   0.682160 0.995480 0.544690 -0.463487
O20   O     O_3   0.549357 0.405483 0.107664 -0.452474
O21   O     O_3   0.487934 0.305619 0.424382 -0.652884
O22   O     O_3   0.921259 0.457908 0.186019 -0.491493
O23   O     O_R   0.498360 0.178430 0.555780 -0.465683
O24   O     O_3   0.799887 0.257352 0.426328 -0.546633
O25   O     O_3   0.218780 0.742000 0.090498 -0.482472
O26   O     O_3   0.267803 0.762603 0.170808 -0.698260
O27   O     O_3   0.121745 0.671342 0.301951 -0.570764
O28   O     O_3   0.172700 0.691157 0.386564 -0.696697
O29   O     O_3   0.292723 0.061724 0.400929 -0.472049
O30   O     O_3   0.059089 0.941019 0.202076 -0.518784
O31   O     O_3   0.028301 0.939543 0.121249 -0.618968
O32   O     O_3   0.911852 0.455486 0.104113 -0.623557
O33   O     O_3   0.244126 0.045343 0.321222 -0.656090
O34   O     O_R   0.328690 0.978040 0.538950 -0.497847
O35   O     O_3   0.855717 0.001314 0.109570 -0.639226
O36   O     O_3   0.854422 0.028728 0.197284 -0.697951
O37   O     O_3   0.863008 0.934457 0.330130 -0.550875
O38   O     O_3   0.822932 0.945284 0.414527 -0.693301
O39   O     O_3   0.446013 0.786049 0.374734 -0.535328
O40   O     O_3   0.540625 0.692041 0.185218 -0.489047
O41   O     O_3   0.542640 0.661150 0.102812 -0.610686
O42   O     O_3   0.487359 0.799430 0.294398 -0.561788
O43   O     O_3   0.845757 0.346432 0.914129 -0.703020
O44   O     O_3   0.869643 0.364839 0.361359 -0.546420
O45   O     O_3   0.499990 0.999990 0.500010 -0.293051
O46   O     O_3   0.841693 0.312551 0.828350 -0.691388
O47   O     O_3   0.852323 0.353734 0.690489 -0.698257
O48   O     O_3   0.807327 0.306865 0.607121 -0.548780
O49   O     O_3   0.440016 0.221804 0.624157 -0.545205
O50   O     O_3   0.498599 0.297172 0.818967 -0.474693
O51   O     O_3   0.507392 0.348251 0.901328 -0.462886
O52   O     O_3   0.482635 0.257774 0.709310 -0.667522
O53   O     O_3   0.180649 0.947589 0.941032 -0.703419
O54   O     O_3   0.007245 0.578262 0.883263 -0.496801
O55   O     O_3   0.024631 0.752863 0.647471 -0.554495
O56   O     O_R   0.828710 0.851830 0.052170 -0.427507
O57   O     O_3   0.684461 0.213807 0.294048 -0.699560
O58   O     O_3   0.290504 0.763662 0.708350 -0.514679
O59   O     O_3   0.283837 0.762733 0.791587 -0.666186
O60   O     O_3   0.229650 0.998106 0.863259 -0.564026
O61   O     O_3   0.093255 0.952537 0.715272 -0.563958
O62   O     O_3   0.061756 0.931326 0.796299 -0.558719
O63   O     O_3   0.390491 0.995213 0.695697 -0.680308
O64   O     O_3   0.450681 0.996409 0.616139 -0.713649
O65   O     O_3   0.057449 0.630002 0.807094 -0.535899
O66   O     O_3   0.075888 0.769398 0.566638 -0.555102
O67   O     O_R   0.005980 0.823990 0.047210 -0.508322
O68   O     O_3   0.504942 0.578763 0.910019 -0.463421
O69   O     O_3   0.725156 0.250750 0.211591 -0.670781
O70   O     O_3   0.824130 0.910260 0.906719 -0.669130
O71   O     O_3   0.780434 0.945031 0.687833 -0.578063
O72   O     O_3   0.522696 0.894550 0.716520 -0.652957
O73   O     O_3   0.511266 0.874639 0.801574 -0.545117
O74   O     O_3   0.438614 0.579752 0.833191 -0.478948
O75   O     O_3   0.627972 0.622418 0.695152 -0.672375
O76   O     O_3   0.599859 0.598748 0.774560 -0.459092
O77   O     O_3   0.445724 0.638017 0.638842 -0.696958
O78   O     O_R   0.031900 0.688850 0.050170 -0.447433
O79   O     O_3   0.738398 0.927133 0.834003 -0.588883
O80   O     O_3   0.551972 0.388453 0.186865 -0.615037
O81   O     O_3   0.802818 0.002943 0.608809 -0.720484
O82   O     O_3   0.767947 0.576028 0.331943 -0.596671
O83   O     O_3   0.777440 0.601406 0.253690 -0.619670
O84   O     O_3   0.541770 0.374916 0.346843 -0.678907
O85   O     O_R   0.830940 0.518420 0.048680 -0.497402

loop_
_geom_bond_atom_site_label_1
_geom_bond_atom_site_label_2
_ccdc_geom_bond_type
C38   H112  S    
C19   O30   S    
C104  O50   S    
H22   O82   S    
C87   C88   A    
C11   C62   A    
C19   H37   S    
C133  O68   S    
C114  C115  A    
C40   O71   S    
H67   O47   S    
C68   C75   A    
C102  O43   S    
C64   O27   S    
C59   C66   A    
C5    C6    A    
C52   O84   S    
C41   H5    S    
H25   O84   S    
C56   C57   A    
Cr6   O10   S    
C38   O66   S    
C61   C63   A    
C110  C111  A    
H105  O63   S    
C31   H87   S    
C53   O15   A    
H32   O28   S    
C77   O18   A    
C14   H88   S    
C83   O36   S    
C43   H14   S    
C24   C51   A    
C83   C88   A    
C138  O70   S    
C59   C60   A    
C28   H76   S    
C68   O25   S    
H20   O80   S    
C8    C135  S    
Cr2   O13   S    
C104  C105  A    
C17   H29   S    
C137  O80   S    
C29   H78   S    
Cr1   O17   S    
C75   C95   S    
C30   H84   S    
Cr3   O15   S    
C3    C8    A    
C17   O27   S    
C37   H107  S    
C21   O39   S    
C64   C66   A    
C22   O40   S    
Cr4   O6    S    
C1    O13   A    
C100  O46   S    
Cr2   O45   S    
C42   O74   S    
C125  O20   S    
C119  O58   S    
C124  C130  A    
H41   O32   S    
C94   C96   A    
H61   O43   S    
C12   O20   S    
H23   O83   S    
C18   O29   S    
C89   O23   A    
C27   H72   S    
Cr6   O3    S    
C44   H17   S    
C25   H62   S    
C110  C116  A    
C32   H92   S    
C40   H3    S    
C128  O6    A    
C4    C5    A    
C81   O37   S    
C53   C58   S    
C6    C7    A    
C41   H7    S    
C63   C74   S    
C11   C84   A    
C94   O49   S    
C26   H70   S    
Cr4   O56   S    
C122  O62   S    
C43   O76   S    
H28   O26   S    
C45   C50   A    
C13   C132  S    
C35   C113  A    
C21   H52   S    
C69   C70   A    
C127  C131  A    
Cr4   O5    S    
C39   H116  S    
C98   C99   A    
C102  C109  A    
C26   H68   S    
H106  O64   S    
Cr4   O11   S    
C17   H31   S    
C110  C128  S    
C29   H80   S    
C2    C109  S    
C16   O25   S    
C22   H53   S    
C33   H97   S    
C111  C112  A    
C41   O73   S    
C115  O65   S    
C20   H47   S    
C112  C114  A    
C97   C98   A    
C7    C8    A    
C54   O21   S    
C105  C107  S    
C26   H69   S    
Cr5   O7    S    
C42   H10   S    
C76   C78   A    
C43   H15   S    
C30   O54   S    
C32   H93   S    
C115  C116  A    
C103  O51   S    
C32   O58   S    
C107  C108  T    
C62   C73   A    
C44   H19   S    
C25   H64   S    
C9    C10   A    
Cr1   O1    S    
C18   H36   S    
C99   O48   S    
H65   O46   S    
H43   O35   S    
H40   O31   S    
C85   C92   A    
C111  O53   S    
C24   O22   S    
C106  O85   A    
C61   O33   S    
C106  C113  S    
C76   C82   A    
C116  O54   S    
C112  O60   S    
C77   C84   S    
C127  C129  A    
C39   H114  S    
C13   O5    A    
H49   O38   S    
C47   C57   S    
C60   O29   S    
C65   O16   A    
C114  C123  S    
Cr3   O45   S    
C21   H50   S    
H117  O69   S    
C3    C4    A    
C120  C121  A    
C124  C126  A    
C129  C130  A    
C96   O52   S    
C1    C76   S    
Cr6   O2    S    
C29   O51   S    
C23   O42   S    
C15   H2    S    
C134  C135  A    
C2    O8    A    
C101  O17   A    
C23   H60   S    
C7    O76   S    
C71   C72   S    
C33   H96   S    
C59   C65   S    
C16   H27   S    
C85   O35   S    
C14   O22   S    
H82   O53   S    
C35   O32   S    
C5    C73   S    
C95   O67   A    
C63   C64   A    
C62   O71   S    
C18   H34   S    
C49   C50   A    
C27   O49   S    
C98   O47   S    
C36   H103  S    
Cr3   O23   S    
C82   O38   S    
Cr5   O11   S    
C55   C56   A    
C14   H77   S    
H21   O81   S    
C65   O1    A    
H11   O75   S    
C135  C136  A    
H45   O36   S    
C39   O68   S    
C31   H89   S    
C34   O61   S    
C30   H85   S    
C22   H56   S    
C20   H46   S    
C40   H119  S    
H118  O70   S    
C132  C138  A    
C37   O65   S    
C26   O48   S    
C70   C71   A    
C28   O50   S    
C93   C99   A    
C38   H111  S    
C27   H71   S    
C53   O14   A    
C44   H18   S    
C19   H38   S    
C78   O39   S    
C106  O2    A    
C23   H58   S    
C34   H100  S    
C67   C68   A    
H42   O33   S    
C72   C74   T    
C86   C87   A    
C41   H6    S    
C125  C137  A    
Cr6   O9    S    
Cr2   O14   S    
Cr1   O45   S    
C34   H101  S    
C50   C51   S    
C15   O24   S    
C21   H51   S    
C121  C122  A    
C117  O3    A    
C39   H115  S    
C13   O10   A    
C51   C137  A    
C48   C49   A    
C83   C85   A    
C88   C90   S    
C27   H73   S    
C28   H75   S    
C37   H109  S    
C133  C134  A    
C127  O66   S    
C17   H30   S    
C29   H79   S    
C95   O78   A    
C46   C47   A    
Cr1   O18   S    
C9    O77   S    
C30   H83   S    
C22   H54   S    
Cr3   O16   S    
C20   H48   S    
C119  C120  A    
C117  O56   A    
C37   H108  S    
C20   O37   S    
C103  C109  A    
H57   O41   S    
C80   C91   S    
C79   O42   S    
C101  O34   A    
C2    O9    A    
C118  O59   S    
C124  O63   S    
C121  O61   S    
C90   C91   T    
C1    O4    A    
C49   O83   S    
Cr5   O78   S    
C36   O62   S    
C69   C75   A    
C67   C71   A    
C118  C123  A    
C52   C57   A    
C14   H99   S    
C16   H26   S    
C46   O57   S    
C55   C58   A    
C126  O64   S    
C103  C104  A    
H66   O21   S    
C60   C61   A    
C86   C92   A    
C25   H63   S    
C32   H91   S    
Cr5   O85   S    
H81   O52   S    
Cr1   O4    S    
C93   C94   A    
C34   H98   S    
C36   H102  S    
C11   O81   S    
Cr4   O67   S    
C81   C82   A    
C67   O26   S    
C100  C105  A    
Cr6   O11   S    
C120  C130  S    
H16   O77   S    
C15   H13   S    
C113  C125  A    
C12   H44   S    
C31   H86   S    
C118  C119  A    
C6    O75   S    
C97   C108  S    
C86   O41   S    
C132  C133  A    
C89   O12   A    
C69   O31   S    
C134  O74   S    
C42   H8    S    
C3    O73   S    
C12   H33   S    
C25   O44   S    
C66   O28   S    
C89   C93   S    
C87   O40   S    
C9    C73   A    
C52   C54   A    
H90   O57   S    
C24   C35   A    
Cr5   O8    S    
C42   H9    S    
C136  C138  A    
C56   O44   S    
C19   H39   S    
C78   C79   A    
C45   O69   S    
C77   O19   A    
C33   O60   S    
C23   H59   S    
C92   C117  S    
C33   H95   S    
C31   O55   S    
C47   C48   A    
C96   C97   A    
C100  C102  A    
C129  O55   S    
Cr3   O34   S    
C18   H35   S    
C4    O72   S    
C36   H104  S    
C128  O7    A    
H4    O72   S    
Cr2   O19   S    
C38   H113  S    
C101  C131  S    
H94   O59   S    
C54   C58   A    
C28   H74   S    
C80   C81   A    
C44   O79   S    
C136  O79   S    
Cr2   O12   S    
C48   O82   S    
C40   H120  S    
C126  C131  A    
C16   H24   S    
C10   C84   A    
C55   O24   S    
C12   H55   S    
C70   O30   S    
C10   H1    S    
C79   C80   A    
C45   C46   A    
C122  C123  A    
C43   H12   S    
C15   H110  S    
