data_mof_unit_48363.cif
_audit_creation_date              2012-12-10T20:27:59-0500
_audit_creation_method            fapswitch 2.2
_symmetry_space_group_name_H-M    P1
_symmetry_Int_Tables_number       1
_space_group_crystal_system       triclinic
_cell_length_a                    12.771281
_cell_length_b                    10.728192
_cell_length_c                    9.884683
_cell_angle_alpha                 90.624603
_cell_angle_beta                  97.122647
_cell_angle_gamma                 90.717193
_cell_volume                      1343.66518082

loop_
_atom_site_label
_atom_site_type_symbol
_atom_type_description
_atom_site_fract_x
_atom_site_fract_y
_atom_site_fract_z
_atom_type_partial_charge
C1    C     C_R   0.499767 0.259861 0.498926 0.882938
C2    C     C_R   0.461214 0.930951 0.375932 -0.292529
C3    C     C_R   0.486472 0.870413 0.499821 -0.170251
C4    C     C_R   0.298652 0.502980 0.473168 0.960529
C5    C     C_R   0.499406 0.937755 0.621639 0.118468
C6    C     C_3   0.585102 0.931963 0.738851 -0.513360
C7    C     C_3   0.589027 0.073140 0.735716 -0.440941
C8    C     C_R   0.409401 0.475197 0.056157 -0.024991
C9    C     C_R   0.582619 0.550211 0.085595 0.552003
C10   C     C_R   0.584213 0.544694 0.941319 -0.249396
C11   C     C_R   0.409479 0.474798 0.914575 0.060881
C12   C     C_R   0.023845 0.453406 0.527740 0.069740
C13   C     C_3   0.337928 0.362888 0.896142 0.282869
C14   C     C_3   0.338253 0.363938 0.051198 0.254279
C15   C     C_R   0.498108 0.739536 0.500370 0.940904
C16   C     C_R   0.701529 0.499081 0.526887 0.914041
C17   C     C_R   0.813572 0.493620 0.543581 -0.163009
C18   C     C_R   0.187330 0.516151 0.455483 -0.204393
C19   C     C_R   0.032489 0.634700 0.379125 0.437928
C20   C     C_R   0.141250 0.617610 0.383623 0.408912
C21   C     C_R   0.129218 0.432515 0.522210 -0.366142
C22   C     C_3   0.822027 0.777421 0.527457 -0.298179
C23   C     C_R   0.974530 0.557215 0.459380 -0.154795
C24   C     C_3   0.657112 0.739131 0.142961 -0.290653
C25   C     C_3   0.315017 0.160558 0.818893 -0.331731
C26   C     C_3   0.197629 0.298855 0.160673 -0.293086
C27   C     C_3   0.937535 0.684629 0.178234 -0.249686
C28   C     C_3   0.205506 0.705290 0.198677 -0.214575
C29   C     C_3   0.541650 0.101827 0.178865 -0.322679
C30   C     C_R   0.869614 0.581156 0.476340 0.517447
C31   C     C_R   0.862358 0.392325 0.610672 -0.304697
C32   C     C_R   0.968241 0.373144 0.604410 -0.145952
C33   C     C_R   0.502202 0.064912 0.619344 0.118946
C34   C     C_R   0.491882 0.127248 0.495731 -0.243102
C35   C     C_R   0.468228 0.059696 0.371845 0.503978
H1    H     H_    0.663889 0.111305 0.705147 0.181252
H2    H     H_    0.710114 0.789929 0.222691 0.235375
H3    H     H_    0.576018 0.774686 0.147419 0.139530
H4    H     H_    0.683918 0.761796 0.043193 0.119151
H5    H     H_    0.652595 0.578538 0.897637 0.159729
H6    H     H_    0.260906 0.385397 0.835678 0.109806
H7    H     H_    0.262977 0.180502 0.723109 0.161805
H8    H     H_    0.267020 0.143403 0.903503 0.153603
H9    H     H_    0.357316 0.073088 0.803359 0.199129
H10   H     H_    0.249739 0.279544 0.256740 0.193063
H11   H     H_    0.185163 0.213033 0.096409 0.156759
H12   H     H_    0.378010 0.283587 0.103879 0.178629
H13   H     H_    0.119888 0.327216 0.188939 0.181976
H14   H     H_    0.817552 0.325825 0.663007 0.160079
H15   H     H_    0.874640 0.614894 0.191319 0.219513
H16   H     H_    0.995502 0.641379 0.117729 0.115458
H17   H     H_    0.900416 0.762719 0.118182 0.176867
H18   H     H_    0.006029 0.294054 0.656466 0.141196
H19   H     H_    0.185070 0.611733 0.152604 0.188615
H20   H     H_    0.285951 0.729746 0.175345 0.172085
H21   H     H_    0.150835 0.775736 0.149637 0.175934
H22   H     H_    0.534204 0.161600 0.087442 0.200014
H23   H     H_    0.167892 0.354653 0.576049 0.161745
H24   H     H_    0.546898 0.003915 0.142914 0.144362
H25   H     H_    0.615819 0.130631 0.243754 0.163326
H26   H     H_    0.442839 0.879117 0.281120 0.176856
H27   H     H_    0.555965 0.894931 0.832168 0.200965
H28   H     H_    0.780837 0.861468 0.485044 0.178668
H29   H     H_    0.904637 0.805453 0.566127 0.175799
H30   H     H_    0.780088 0.744426 0.612818 0.124856
H31   H     H_    0.657952 0.887955 0.711193 0.190039
H32   H     H_    0.563400 0.117457 0.828004 0.237897
N1    N     N_R   0.499290 0.499140 0.142710 -0.161802
N2    N     N_R   0.499290 0.499180 0.857070 -0.098585
O1    O     O_R   0.500010 0.316790 0.614690 -0.568616
O2    O     O_3   0.663426 0.609829 0.168003 -0.566751
O3    O     O_3   0.389598 0.257969 0.850072 -0.600959
O4    O     O_3   0.238884 0.396859 0.088672 -0.636136
O5    O     O_3   0.986239 0.732394 0.304741 -0.558678
O6    O     O_3   0.205368 0.711045 0.341285 -0.601235
O7    O     O_3   0.451993 0.118308 0.247410 -0.617083
O8    O     O_R   0.500000 0.316760 0.385350 -0.594632
O9    O     O_R   0.346360 0.499990 0.595720 -0.624553
O10   O     O_R   0.346350 0.499960 0.366370 -0.587021
O11   O     O_R   0.500000 0.683240 0.614650 -0.625354
O12   O     O_R   0.499990 0.683210 0.385310 -0.608971
O13   O     O_R   0.653650 0.500040 0.633630 -0.647736
O14   O     O_R   0.653640 0.500010 0.404280 -0.541464
O15   O     O_3   0.819493 0.686545 0.422916 -0.565915
Zn1   Zn    Zn3+2 0.500010 0.500020 0.653130 0.970708
Zn2   Zn    Zn3+2 0.499990 0.499980 0.346870 1.010983

loop_
_geom_bond_atom_site_label_1
_geom_bond_atom_site_label_2
_ccdc_geom_bond_type
C2    C35   A    
C18   C21   A    
C1    O8    A    
C7    H1    S    
C19   C20   A    
C25   H8    S    
C13   H6    S    
C28   H21   S    
C3    C15   S    
C15   O12   A    
C29   O7    S    
C31   C32   A    
C12   C23   A    
C5    C6    S    
C24   H4    S    
N1    Zn2   S    
C10   H5    S    
C34   C35   A    
C26   H10   S    
C22   H28   S    
C29   H24   S    
C16   C17   S    
C5    C33   A    
C24   H3    S    
C27   O5    S    
C9    C10   A    
O12   Zn2   S    
C2    H26   S    
C26   H13   S    
C4    C18   S    
C13   C14   S    
C12   C32   A    
C17   C30   A    
C7    C33   S    
C31   H14   S    
C25   H9    S    
C28   H20   S    
C27   H16   S    
C1    C34   S    
C33   C34   A    
C35   O7    S    
C14   O4    S    
C4    O10   A    
C28   H19   S    
C7    H32   S    
C12   C21   A    
C16   O14   A    
C20   O6    S    
C22   O15   S    
C19   C23   A    
C23   C30   A    
C22   H30   S    
C4    O9    A    
O11   Zn1   S    
C15   O11   A    
C29   H25   S    
C16   O13   A    
C24   H2    S    
C25   O3    S    
C6    C7    S    
O9    Zn1   S    
C29   H22   S    
O8    Zn2   S    
C8    N1    A    
C26   O4    S    
C17   C31   A    
C32   H18   S    
N2    Zn1   S    
C27   H17   S    
C27   H15   S    
C8    C14   S    
C19   O5    S    
C9    O2    S    
C3    C5    A    
C25   H7    S    
C11   N2    A    
C14   H12   S    
C13   O3    S    
O13   Zn1   S    
C1    O1    A    
C6    H27   S    
C2    C3    A    
C9    N1    A    
C21   H23   S    
C11   C13   S    
C28   O6    S    
C8    C11   A    
C18   C20   A    
C30   O15   S    
C26   H11   S    
C22   H29   S    
C10   N2    A    
C6    H31   S    
O14   Zn2   S    
O1    Zn1   S    
O10   Zn2   S    
C24   O2    S    
