data_mof_unit_11540.cif
_audit_creation_date              2012-12-10T16:56:35-0500
_audit_creation_method            fapswitch 2.2
_symmetry_space_group_name_H-M    P1
_symmetry_Int_Tables_number       1
_space_group_crystal_system       triclinic
_cell_length_a                    7.957313
_cell_length_b                    8.546171
_cell_length_c                    15.682665
_cell_angle_alpha                 93.731661
_cell_angle_beta                  84.04137
_cell_angle_gamma                 93.207109
_cell_volume                      1057.18081253

loop_
_atom_site_label
_atom_site_type_symbol
_atom_type_description
_atom_site_fract_x
_atom_site_fract_y
_atom_site_fract_z
_atom_type_partial_charge
C1    C     C_R   0.544621 0.793866 0.498290 0.942324
C2    C     C_3   0.407676 0.374434 0.028827 -0.153675
C3    C     C_1   0.497584 0.500867 0.750892 -0.127910
C4    C     C_1   0.502426 0.499390 0.249111 -0.114590
C5    C     C_3   0.339528 0.506852 0.981296 -0.161750
C6    C     C_3   0.660468 0.493673 0.018714 -0.161585
C7    C     C_3   0.498372 0.500666 0.917379 0.198144
C8    C     C_3   0.501624 0.499858 0.082631 0.197231
C9    C     C_1   0.497325 0.500929 0.826390 -0.068455
C10   C     C_1   0.502677 0.499488 0.173618 -0.064758
C11   C     C_R   0.455367 0.206146 0.501840 0.941842
C12   C     C_R   0.499256 0.500518 0.661667 0.885235
C13   C     C_R   0.500748 0.499542 0.338334 0.881189
C14   C     C_2   0.567864 0.957575 0.498846 -0.346352
C15   C     C_2   0.432064 0.042465 0.501588 -0.307958
C16   C     C_3   0.433489 0.632275 0.036911 -0.163172
C17   C     C_3   0.566506 0.368251 0.963101 -0.161144
C18   C     C_3   0.592321 0.626092 0.971182 -0.159103
H1    H     H_    0.667647 0.728955 0.945394 0.144033
H2    H     H_    0.135090 0.740876 0.678489 0.350718
H3    H     H_    0.332350 0.271569 0.054611 0.144926
H4    H     H_    0.379256 0.740176 0.069299 0.142384
H5    H     H_    0.620740 0.260350 0.930715 0.144033
H6    H     H_    0.791630 0.488278 0.036178 0.140212
H7    H     H_    0.208368 0.512249 0.963829 0.137737
H8    H     H_    0.696464 0.007764 0.497679 0.249392
H9    H     H_    0.303416 0.992295 0.502902 0.264427
H10   H     H_    0.878267 0.091732 0.356722 0.363183
N1    N     N_2   0.950320 0.457950 0.477300 0.116861
N2    N     N_2   0.049680 0.542050 0.522700 0.085254
O1    O     O_R   0.389250 0.738570 0.505570 -0.576093
O2    O     O_2   0.011597 0.166602 0.505301 -0.277658
O3    O     O_3   0.849366 0.201501 0.373492 -0.538482
O4    O     O_2   0.987917 0.833333 0.494505 -0.266063
O5    O     O_2   0.836602 0.725604 0.624334 -0.310437
O6    O     O_3   0.150044 0.800770 0.626015 -0.523493
O7    O     O_R   0.610750 0.261430 0.494430 -0.576149
O8    O     O_R   0.678390 0.711630 0.491020 -0.558674
O9    O     O_R   0.321610 0.288370 0.508980 -0.551213
O10   O     O_R   0.355460 0.513480 0.630490 -0.636388
O11   O     O_R   0.644540 0.486520 0.369510 -0.595301
O12   O     O_R   0.644600 0.486540 0.615950 -0.580325
O13   O     O_R   0.355400 0.513460 0.384050 -0.582180
O14   O     O_2   0.162808 0.275423 0.375288 -0.304552
S1    S     S_3+6 0.001792 0.273514 0.433835 0.141382
S2    S     S_3+6 0.997983 0.726638 0.566001 0.140250
Zn1   Zn    Zn3+2 0.306940 0.517990 0.509710 1.118285
Zn2   Zn    Zn3+2 0.693060 0.482010 0.490290 1.138421

loop_
_geom_bond_atom_site_label_1
_geom_bond_atom_site_label_2
_ccdc_geom_bond_type
C12   O10   A    
O10   Zn1   S    
C6    C8    S    
O6    S2    S    
N1    N2    D    
C3    C9    T    
C1    C14   S    
O3    S1    S    
O2    S1    D    
C15   H9    S    
C13   O13   A    
C11   C15   S    
C7    C18   S    
C6    H6    S    
C2    H3    S    
C13   O11   A    
C8    C16   S    
O12   Zn2   S    
C14   H8    S    
C2    C17   S    
C11   O9    A    
C17   H5    S    
C12   O12   A    
O13   Zn1   S    
C1    O8    A    
O4    S2    D    
O9    Zn1   S    
O1    Zn1   S    
O11   Zn2   S    
H10   O3    S    
C5    C7    S    
C6    C18   S    
C5    H7    S    
C2    C5    S    
N1    Zn2   S    
C4    C10   T    
H2    O6    S    
C7    C9    S    
N2    Zn1   S    
C1    O1    A    
O14   S1    D    
C16   C18   S    
C18   H1    S    
C4    C13   S    
C11   O7    A    
C6    C17   S    
C14   C15   D    
C5    C16   S    
C16   H4    S    
C3    C12   S    
C7    C17   S    
O5    S2    D    
O8    Zn2   S    
N2    S2    S    
C8    C10   S    
C2    C8    S    
N1    S1    S    
O7    Zn2   S    
