data_mof_unit_11307.cif
_audit_creation_date              2013-03-05T16:45:28-0500
_audit_creation_method            fapswitch 2.2
_symmetry_space_group_name_H-M    P1
_symmetry_Int_Tables_number       1
_space_group_crystal_system       triclinic
_cell_length_a                    18.43095
_cell_length_b                    18.440712
_cell_length_c                    18.46328
_cell_angle_alpha                 120.015889
_cell_angle_beta                  89.960481
_cell_angle_gamma                 120.153309
_cell_volume                      4427.4658306

loop_
_atom_site_label
_atom_site_type_symbol
_atom_site_description
_atom_site_fract_x
_atom_site_fract_y
_atom_site_fract_z
_atom_type_partial_charge
Zn1   Zn    Zn3+2 0.543620 0.414150 0.457300 0.996292
Zn2   Zn    Zn3+2 0.542680 0.585840 0.456390 0.998507
Zn3   Zn    Zn3+2 0.543620 0.585850 0.629000 0.970455
Zn4   Zn    Zn3+2 0.370090 0.414160 0.457300 1.031282
O1    O     O_3   0.500000 0.500000 0.500000 -0.505087
O2    O     O_R   0.323160 0.439910 0.385120 -0.621863
O3    O     O_R   0.616440 0.439920 0.555110 -0.627934
O4    O     O_R   0.614860 0.560070 0.384480 -0.580298
O5    O     O_R   0.445540 0.560090 0.675280 -0.645435
O6    O     O_R   0.614860 0.729170 0.553580 -0.631978
O7    O     O_R   0.324090 0.270830 0.386020 -0.581933
O8    O     O_R   0.615510 0.729180 0.674390 -0.640758
O9    O     O_R   0.445540 0.270830 0.386020 -0.653992
O10   O     O_R   0.615510 0.439910 0.385120 -0.648742
O11   O     O_R   0.324090 0.439920 0.555110 -0.631672
O12   O     O_R   0.443960 0.560080 0.384480 -0.654579
O13   O     O_R   0.616440 0.560090 0.675280 -0.646913
C1    C     C_R   0.359676 0.501481 0.361575 0.823468
C2    C     C_R   0.641128 0.500863 0.639145 0.867265
C3    C     C_R   0.639619 0.500120 0.360845 0.852971
C4    C     C_R   0.360736 0.500192 0.639333 0.845279
C5    C     C_R   0.638467 0.778251 0.638880 0.797910
C6    C     C_R   0.360652 0.222838 0.360255 0.760888
C7    C     C_2   0.279417 0.943827 0.225025 -0.061187
C8    C     C_2   0.190920 0.887531 0.204003 -0.256692
H1    H     H_    0.313603 0.907254 0.200728 0.238939
H2    H     H_    0.157040 0.923218 0.233699 0.170763
C9    C     C_2   0.333296 0.056029 0.286384 -0.275685
C10   C     C_2   0.305303 0.112800 0.291381 0.151422
H3    H     H_    0.397408 0.092763 0.331428 0.202149
C11   C     C_2   0.778969 0.563367 0.839409 -0.139060
C12   C     C_2   0.796859 0.493396 0.807175 -0.280519
H4    H     H_    0.806761 0.624705 0.909877 0.213822
H5    H     H_    0.767054 0.428633 0.738129 0.185632
C13   C     C_2   0.720365 0.559481 0.782342 -0.146335
C14   C     C_2   0.700353 0.504773 0.693967 -0.280888
H6    H     H_    0.694306 0.604488 0.814748 0.190978
H7    H     H_    0.728590 0.463239 0.659838 0.175090
C15   C     C_2   0.279491 0.554772 0.838260 -0.157223
C16   C     C_2   0.190197 0.494303 0.805689 -0.255115
H8    H     H_    0.313689 0.608480 0.909542 0.192807
H9    H     H_    0.153789 0.437226 0.735354 0.181508
C17   C     C_2   0.335573 0.550997 0.781561 -0.175269
C18   C     C_2   0.303756 0.501635 0.693590 -0.263715
H10   H     H_    0.405917 0.591768 0.814205 0.175576
H11   H     H_    0.234430 0.461521 0.658689 0.162564
C19   C     C_R   0.579127 0.795285 0.395276 -0.194012
H12   H     H_    0.614515 0.869646 0.458578 0.189793
C20   C     C_R   0.487427 0.726509 0.371784 -0.153322
H13   H     H_    0.453577 0.748593 0.417302 0.139623
C21   C     C_R   0.439667 0.629246 0.290410 0.229009
C22   C     C_R   0.484463 0.602053 0.232132 -0.147750
H14   H     H_    0.448395 0.527270 0.169071 0.150713
C23   C     C_R   0.576130 0.671445 0.255132 -0.186538
H15   H     H_    0.609477 0.648892 0.209240 0.176735
C24   C     C_R   0.624314 0.768806 0.336918 0.410771
C25   C     C_R   0.285926 0.545036 0.205097 0.389870
C26   C     C_R   0.193953 0.495146 0.194082 -0.172254
C27   C     C_R   0.158184 0.447427 0.238428 0.019385
C28   C     C_R   0.213779 0.450148 0.291820 -0.156014
H16   H     H_    0.185273 0.411717 0.323961 0.197190
C29   C     C_R   0.305179 0.504022 0.306498 -0.163404
C30   C     C_R   0.342299 0.557088 0.266735 -0.058121
C31   C     C_R   0.039510 0.458951 0.294295 -0.185883
H17   H     H_    0.089489 0.540027 0.344436 0.147472
C32   C     C_R   0.950614 0.417154 0.288623 -0.164502
H18   H     H_    0.932246 0.465379 0.334540 0.158591
C33   C     C_R   0.885260 0.313270 0.224076 -0.187234
H19   H     H_    0.816855 0.281935 0.221692 0.184495
C34   C     C_R   0.907751 0.249331 0.164183 0.286603
C35   C     C_R   0.997774 0.291915 0.167980 0.272015
C36   C     C_R   0.063823 0.397537 0.234200 -0.000411
H20   H     H_    0.523916 0.773984 0.949040 0.147950
C37   C     C_R   0.515654 0.812873 0.858518 -0.107041
H21   H     H_    0.445874 0.782531 0.847297 0.147576
C38   C     C_R   0.561844 0.857330 0.815982 -0.127177
H22   H     H_    0.527404 0.861372 0.772116 0.122230
C39   C     C_R   0.652431 0.897111 0.830730 0.120979
C40   C     C_R   0.696103 0.891454 0.887891 -0.029575
H23   H     H_    0.765936 0.921702 0.899624 0.178516
C41   C     C_R   0.649643 0.846723 0.930131 -0.043227
H24   H     H_    0.683545 0.842637 0.974325 0.180603
C42   C     C_R   0.559610 0.807914 0.915790 -0.099812
C43   C     C_R   0.758069 0.054370 0.841172 -0.189049
H25   H     H_    0.763800 0.095886 0.910567 0.205915
C44   C     C_R   0.804002 0.108356 0.805379 -0.076471
C45   C     C_R   0.794686 0.052853 0.714084 0.133959
C46   C     C_R   0.739257 0.945600 0.661228 -0.183587
H26   H     H_    0.733612 0.904177 0.591853 0.197101
C47   C     C_R   0.693102 0.891586 0.697034 -0.096927
C48   C     C_R   0.702225 0.947172 0.788262 -0.010810
C49   C     C_R   0.802141 0.118152 0.621593 0.363767
C50   C     C_R   0.851745 0.170907 0.584681 0.174247
C51   C     C_R   0.941264 0.204756 0.595477 0.410830
C52   C     C_R   0.981926 0.187813 0.644626 0.362687
C53   C     C_R   0.932700 0.138039 0.682853 -0.387365
H27   H     H_    0.963554 0.125829 0.721548 0.174822
C54   C     C_R   0.843916 0.103879 0.671881 0.023999
C55   C     C_R   0.643046 0.207275 0.282976 0.416471
C56   C     C_R   0.688053 0.302366 0.295144 -0.183471
H28   H     H_    0.756699 0.361366 0.338742 0.165762
C57   C     C_R   0.647221 0.320292 0.248281 0.087527
C58   C     C_R   0.559137 0.243518 0.190836 -0.203499
H29   H     H_    0.527079 0.256329 0.153862 0.160156
C59   C     C_R   0.512543 0.149044 0.179580 -0.229821
H30   H     H_    0.444194 0.090787 0.135294 0.207485
C60   C     C_R   0.553447 0.129418 0.224888 0.263273
C61   C     C_R   0.754833 0.419563 0.202183 -0.262567
H31   H     H_    0.754362 0.352068 0.159482 0.189956
C62   C     C_R   0.807882 0.506756 0.203116 -0.097813
C63   C     C_R   0.810040 0.595747 0.259593 -0.103338
C64   C     C_R   0.754800 0.593659 0.312518 0.392683
C65   C     C_R   0.698257 0.502566 0.307467 -0.113345
C66   C     C_R   0.700286 0.416218 0.253556 -0.048509
C67   C     C_R   0.960081 0.760076 0.322294 -0.146733
H32   H     H_    0.983861 0.744512 0.362731 0.138480
C68   C     C_R   0.018246 0.849253 0.326925 -0.200279
H33   H     H_    0.086588 0.902374 0.370905 0.157800
C69   C     C_R   0.988639 0.869896 0.274601 -0.150322
H34   H     H_    0.034974 0.939464 0.279281 0.196809
C70   C     C_R   0.900255 0.801048 0.216503 0.405180
C71   C     C_R   0.841735 0.712009 0.213088 -0.124861
H35   H     H_    0.773294 0.657985 0.169053 0.165333
C72   C     C_R   0.871546 0.691254 0.265563 0.054016
Zn5   Zn    Zn3+2 0.953650 0.585790 0.045310 0.991350
Zn6   Zn    Zn3+2 0.953650 0.414090 0.873610 1.005648
Zn7   Zn    Zn3+2 0.954590 0.414100 0.046220 0.986409
Zn8   Zn    Zn3+2 0.127180 0.585790 0.045310 1.014447
O14   O     O_3   0.997270 0.499940 0.002610 -0.506217
O15   O     O_R   0.173180 0.560020 0.947500 -0.632353
O16   O     O_R   0.881750 0.560030 0.117490 -0.644095
O17   O     O_R   0.880830 0.439850 0.827330 -0.619857
O18   O     O_R   0.053310 0.439870 0.118130 -0.638652
O19   O     O_R   0.881750 0.270770 0.828220 -0.640599
O20   O     O_R   0.173180 0.729110 0.116590 -0.628983
O21   O     O_R   0.882410 0.270770 0.949030 -0.627342
O22   O     O_R   0.051730 0.729120 0.116590 -0.633282
O23   O     O_R   0.880830 0.560020 0.947500 -0.638253
O24   O     O_R   0.174110 0.560030 0.117490 -0.612458
O25   O     O_R   0.051730 0.439850 0.827330 -0.642715
O26   O     O_R   0.882410 0.439870 0.118130 -0.647578
C73   C     C_R   0.136361 0.499181 0.863089 0.855879
C74   C     C_R   0.859957 0.502144 0.143756 0.825961
C75   C     C_R   0.856193 0.499073 0.863482 0.878284
C76   C     C_R   0.137968 0.498402 0.140765 0.811632
C77   C     C_R   0.858753 0.221697 0.863695 0.815990
C78   C     C_R   0.136409 0.776903 0.141930 0.858043
N1    N     N_R   0.718245 0.840748 0.360104 0.215964
O27   O     O_R   0.766204 0.921701 0.441229 -0.422332
O28   O     O_R   0.756205 0.827496 0.299714 -0.376126
O29   O     O_3   0.323141 0.584716 0.157785 -0.723931
H36   H     H_    0.285702 0.530021 0.094422 0.340768
N2    N     N_R   0.839277 0.141255 0.102118 0.215031
O30   O     O_R   0.856499 0.074358 0.081749 -0.323058
O31   O     O_R   0.756946 0.108763 0.075764 -0.421146
N3    N     N_R   0.020842 0.230520 0.101387 0.230391
O32   O     O_R   0.087429 0.230031 0.123748 -0.336093
O33   O     O_R   0.976830 0.177207 0.017677 -0.365221
O34   O     O_3   0.713256 0.079361 0.609838 -0.746752
H37   H     H_    0.687277 0.072884 0.558301 0.371794
N4    N     N_R   0.812815 0.193917 0.539161 0.235051
O35   O     O_R   0.774002 0.238777 0.576413 -0.372791
O36   O     O_R   0.822563 0.178222 0.463971 -0.248215
O37   O     O_3   0.987552 0.256734 0.559247 -0.687564
H38   H     H_    0.049050 0.275817 0.571314 0.373390
O38   O     O_3   0.069700 0.221560 0.655396 -0.779192
H39   H     H_    0.087829 0.204582 0.691999 0.346744
N5    N     N_R   0.503401 0.031322 0.211571 0.184630
O39   O     O_R   0.506747 0.025460 0.278726 -0.386885
O40   O     O_R   0.446556 0.948555 0.133739 -0.397246
O41   O     O_3   0.690242 0.192873 0.326033 -0.683851
H40   H     H_    0.662133 0.118410 0.294273 0.392470
N6    N     N_R   0.228387 0.070899 0.224409 0.207125
O42   O     O_R   0.175089 0.098768 0.246600 -0.319950
O43   O     O_R   0.217885 0.015079 0.140694 -0.354881
O44   O     O_3   0.756031 0.679268 0.371847 -0.740374
H41   H     H_    0.799495 0.738988 0.371556 0.368326
N7    N     N_R   0.870217 0.821243 0.161273 0.224934
O45   O     O_R   0.924123 0.903918 0.164823 -0.303523
O46   O     O_R   0.788929 0.756664 0.106245 -0.384775

loop_
_geom_bond_atom_site_label_1
_geom_bond_atom_site_label_2
_geom_bond_distance
_ccdc_geom_bond_type
O17   C75   1.269998 A    
C32   C33   1.393097 A    
O41   H40   0.988913 S    
C12   H5    1.082525 S    
C50   C51   1.411706 A    
C16   C73   1.452132 S    
C34   N2    1.438100 S    
C52   C53   1.405152 A    
C37   C42   1.398291 A    
C45   C46   1.395779 A    
Zn8   O14   1.951044 S    
C41   H24   1.082325 S    
C47   C48   1.419843 A    
C26   C76   1.469754 S    
C49   C54   1.404728 A    
C19   C20   1.396545 A    
C57   C58   1.398551 A    
N6    O42   1.301140 A    
O6    C5    1.291537 A    
C59   C60   1.406064 A    
Zn6   O25   1.940331 S    
O4    C3    1.282468 A    
C37   C38   1.398465 A    
C49   O34   1.382195 S    
Zn1   O1    1.950203 S    
C6    C10   1.454598 S    
O37   H38   0.989654 S    
C13   H6    1.086636 S    
Zn8   O24   1.948747 S    
C38   C39   1.403626 A    
C2    C14   1.439002 S    
O26   C74   1.283530 A    
C3    C65   1.461297 S    
C55   O41   1.379665 S    
C67   H32   1.083080 S    
O8    C5    1.279163 A    
C61   H31   1.085447 S    
O9    C6    1.283020 A    
C28   C29   1.395766 A    
Zn7   O26   1.939039 S    
C61   C66   1.381730 A    
O7    C6    1.281079 A    
C8    C78   1.444989 S    
C62   C63   1.415777 A    
C49   C50   1.419752 A    
Zn3   O8    1.926408 S    
C41   C42   1.397784 A    
C23   H15   1.082667 S    
N5    O39   1.301431 A    
C43   H25   1.084652 S    
O24   C76   1.283592 A    
O34   H37   0.989152 S    
C18   H11   1.081543 S    
C33   H19   1.080782 S    
C67   C68   1.396166 A    
C53   C54   1.397409 A    
O29   H36   0.991694 S    
C11   H4    1.086770 S    
C25   C30   1.393081 A    
C34   C35   1.417972 A    
Zn7   O21   1.923914 S    
C43   C48   1.395250 A    
Zn6   O17   1.950728 S    
N2    O31   1.301641 A    
Zn2   O12   1.950135 S    
C27   C36   1.482597 S    
C45   C54   1.480116 S    
C16   H9    1.081045 S    
C32   H18   1.082572 S    
C27   C28   1.387273 A    
Zn1   O3    1.947411 S    
C51   C52   1.415121 A    
O2    C1    1.287181 A    
C44   C77   1.475531 S    
C64   C65   1.414643 A    
N4    O36   1.301230 A    
C22   C23   1.399140 A    
N4    O35   1.301436 A    
C69   C70   1.406513 A    
O19   C77   1.278620 A    
C23   C24   1.407115 A    
C37   H21   1.082356 S    
C21   C22   1.402068 A    
N7    O45   1.301583 A    
C21   C30   1.484039 S    
C38   H22   1.083082 S    
Zn4   O2    1.948595 S    
Zn8   O20   1.925193 S    
C10   N6    1.442831 S    
C15   C16   1.341787 D    
C40   C41   1.398210 A    
C39   C40   1.402971 A    
C1    C29   1.463400 S    
C15   C17   1.472080 S    
Zn6   O14   1.943443 S    
C20   C21   1.403136 A    
C26   C27   1.420082 A    
C28   H16   1.084778 S    
C13   C14   1.340265 D    
N3    O32   1.300850 A    
C24   N1    1.437316 S    
N3    O33   1.301407 A    
C17   C18   1.340323 D    
Zn7   O14   1.948378 S    
C29   C30   1.417784 A    
C57   C66   1.478138 S    
O10   C3    1.277916 A    
C4    C18   1.451575 S    
Zn5   O16   1.938123 S    
C19   H12   1.082066 S    
C50   N4    1.436916 S    
C53   H27   1.083810 S    
C56   C57   1.400449 A    
C5    C47   1.475451 S    
C58   C59   1.396700 A    
C7    C8    1.336196 D    
Zn4   O7    1.925342 S    
Zn3   O5    1.940327 S    
C17   H10   1.085317 S    
Zn6   O19   1.926257 S    
C70   C71   1.407362 A    
N6    O43   1.301733 A    
N1    O28   1.300214 A    
O12   C1    1.271601 A    
O44   H41   0.987014 S    
C64   O44   1.388032 S    
C46   C47   1.399863 A    
O20   C78   1.281428 A    
O38   H39   0.991704 S    
C39   C48   1.476933 S    
C11   C13   1.459512 S    
Zn2   O1    1.948379 S    
O18   C76   1.277480 A    
C71   C72   1.403586 A    
C14   H7    1.082449 S    
Zn2   O6    1.923913 S    
C52   O38   1.381719 S    
C51   O37   1.383180 S    
O16   C74   1.273926 A    
C22   H14   1.083043 S    
C65   C66   1.414813 A    
Zn7   O18   1.950031 S    
C60   N5    1.436190 S    
C9    C10   1.347823 D    
C67   C72   1.400855 A    
C63   C64   1.410586 A    
C63   C72   1.483004 S    
C44   C45   1.419882 A    
O22   C78   1.279889 A    
C11   C12   1.336691 D    
Zn2   O4    1.939039 S    
C7    C9    1.463857 S    
O25   C73   1.276799 A    
Zn4   O1    1.951048 S    
Zn3   O1    1.943443 S    
Zn8   O15   1.936476 S    
N7    O46   1.301624 A    
C69   H34   1.082172 S    
C70   N7    1.439751 S    
Zn5   O23   1.947409 S    
C8    H2    1.083981 S    
C55   C60   1.420790 A    
C59   H30   1.082877 S    
O3    C2    1.272829 A    
C55   C56   1.399367 A    
Zn5   O22   1.925843 S    
C31   H17   1.083373 S    
Zn4   O11   1.936476 S    
C68   C69   1.397618 A    
N2    O30   1.301178 A    
C9    H3    1.086450 S    
O23   C75   1.272677 A    
C68   H33   1.082387 S    
C7    H1    1.084854 S    
O5    C4    1.279503 A    
C25   C26   1.416972 A    
O11   C4    1.275832 A    
C35   N3    1.436828 S    
C25   O29   1.379637 S    
N5    O40   1.301342 A    
C56   H28   1.083848 S    
O13   C2    1.270772 A    
C61   C62   1.390889 A    
Zn3   O13   1.950727 S    
N1    O27   1.300946 A    
C31   C36   1.402308 A    
C62   C74   1.454955 S    
O15   C73   1.278819 A    
C12   C75   1.437126 S    
C40   H23   1.082998 S    
Zn5   O14   1.950206 S    
C35   C36   1.417020 A    
Zn1   O9    1.925739 S    
C46   H26   1.084632 S    
C15   H8    1.086381 S    
C33   C34   1.403863 A    
C20   H13   1.083276 S    
C58   H29   1.083097 S    
C43   C44   1.398309 A    
Zn1   O10   1.938019 S    
C71   H35   1.083181 S    
H20   C42   1.082298 S    
O21   C77   1.292091 A    
C31   C32   1.392947 A    
C19   C24   1.404965 A    
