data_mof_unit_27007.cif
_audit_creation_date              2012-12-10T17:02:58-0500
_audit_creation_method            fapswitch 2.2
_symmetry_space_group_name_H-M    P1
_symmetry_Int_Tables_number       1
_space_group_crystal_system       triclinic
_cell_length_a                    9.993562
_cell_length_b                    10.947856
_cell_length_c                    13.50042
_cell_angle_alpha                 95.698324
_cell_angle_beta                  82.437787
_cell_angle_gamma                 110.00999
_cell_volume                      1373.48231175

loop_
_atom_site_label
_atom_site_type_symbol
_atom_type_description
_atom_site_fract_x
_atom_site_fract_y
_atom_site_fract_z
_atom_type_partial_charge
C1    C     C_R   0.554273 0.744087 0.508690 0.830881
C2    C     C_R   0.437047 0.462639 0.971668 0.048330
C3    C     C_R   0.477110 0.464463 0.867576 -0.044253
C4    C     C_R   0.546712 0.493728 0.036080 -0.036225
C5    C     C_R   0.689797 0.550827 0.995267 -0.114804
C6    C     C_R   0.723368 0.514680 0.893722 0.303163
C7    C     C_R   0.609311 0.448931 0.836284 0.264431
C8    C     C_R   0.522340 0.464956 0.136759 0.217009
C9    C     C_R   0.749949 0.636293 0.164027 0.283441
C10   C     C_R   0.376725 0.455899 0.799454 -0.112466
C11   C     C_2   0.574295 0.880495 0.527431 0.176903
C12   C     C_R   0.422649 0.480711 0.690221 0.844470
C13   C     C_2   0.541164 0.944249 0.459235 0.187156
C14   C     C_2   0.425104 0.114594 0.475014 0.178955
C15   C     C_2   0.537361 0.075703 0.483784 -0.112711
C16   C     C_2   0.914802 0.474541 0.492498 0.413319
C17   C     C_2   0.047664 0.451786 0.522719 0.357295
C18   C     C_R   0.445490 0.254320 0.491285 0.782112
C19   C     C_R   0.577582 0.520265 0.311034 0.903803
C20   C     C_R   0.789454 0.632915 0.059015 0.272400
C21   C     C_R   0.621116 0.539814 0.203210 -0.275185
C22   C     C_R   0.231283 0.416885 0.837238 -0.147930
C23   C     C_R   0.189085 0.395793 0.939204 0.364837
C24   C     C_R   0.291761 0.432049 0.006622 -0.151387
Cu1   Cu    Cu3+1 0.362000 0.479240 0.482530 1.166214
Cu2   Cu    Cu3+1 0.638000 0.520760 0.517470 1.185204
H1    H     H_    0.150468 0.397977 0.787679 0.234306
H2    H     H_    0.256216 0.431844 0.085734 0.202719
H3    H     H_    0.634345 0.143615 0.511169 0.228185
N1    N     N_2   0.845330 0.551960 0.543750 -0.092851
N2    N     N_2   0.154690 0.448120 0.456210 -0.046809
O1    O     O_R   0.426290 0.668220 0.490680 -0.560838
O2    O     O_R   0.659360 0.703290 0.520190 -0.479941
O3    O     O_R   0.326580 0.473880 0.629020 -0.571739
O4    O     O_R   0.559660 0.508940 0.658530 -0.556448
O5    O     O_R   0.340640 0.296710 0.479810 -0.528030
O6    O     O_R   0.573710 0.331780 0.509320 -0.565145
O7    O     O_R   0.440340 0.491060 0.341470 -0.534635
O8    O     O_R   0.673420 0.526120 0.370980 -0.507370
S1    S     S_3+6 0.859524 0.766494 0.239190 0.129323
O9    O     O_2   0.796717 0.773195 0.345475 -0.262161
O10   O     O_2   0.004192 0.752117 0.236920 -0.152576
O11   O     O_3   0.880542 0.908390 0.190551 -0.420635
H4    H     H_    0.950306 0.975519 0.230168 0.424113
Br1   Br    Br    0.521096 0.875505 0.322444 -0.256761
S2    S     S_3+6 0.259270 0.006535 0.438508 0.148013
O12   O     O_2   0.262225 0.005746 0.326905 -0.138674
O13   O     O_2   0.233905 0.870825 0.467430 -0.192944
O14   O     O_3   0.124413 0.057156 0.492684 -0.415598
H5    H     H_    0.134785 0.065988 0.565278 0.368975
S3    S     S_3+6 0.604293 0.943428 0.651439 0.096196
O15   O     O_2   0.740479 0.057874 0.650475 -0.173151
O16   O     O_2   0.480249 0.984775 0.697325 -0.194118
O17   O     O_3   0.617060 0.828464 0.719915 -0.512153
H6    H     H_    0.633494 0.871255 0.787513 0.399760
Br2   Br    Br    0.009680 0.335491 0.626213 -0.339576
S4    S     S_3+6 0.866822 0.383204 0.372861 0.088363
O18   O     O_2   0.954946 0.295274 0.345357 -0.217998
O19   O     O_2   0.716055 0.297713 0.363769 -0.299433
O20   O     O_3   0.909102 0.489911 0.283185 -0.460663
H7    H     H_    0.858003 0.440212 0.226260 0.389294
Br3   Br    Br    0.191463 0.568933 0.355276 -0.154516
S5    S     S_3+6 0.933226 0.687514 0.615878 0.173707
O21   O     O_2   0.073280 0.683104 0.641607 -0.251280
O22   O     O_2   0.959883 0.805195 0.558144 -0.145009
O23   O     O_3   0.827345 0.700259 0.720896 -0.491422
H8    H     H_    0.881579 0.782467 0.756314 0.397463
Br4   Br    Br    0.911844 0.516403 0.840245 -0.309855
Br5   Br    Br    0.964990 0.758972 0.002723 -0.243018
Br6   Br    Br    0.384480 0.297631 0.173982 -0.285308
S6    S     S_3+6 0.009908 0.312914 0.983690 0.123129
O24   O     O_2   0.927712 0.240584 0.898217 -0.148368
O25   O     O_2   0.006068 0.217386 0.057561 -0.173293
O26   O     O_3   0.933559 0.419173 0.041584 -0.500384
H9    H     H_    0.012972 0.492022 0.068297 0.353563
S7    S     S_3+6 0.597507 0.292485 0.780429 0.121937
O27   O     O_2   0.651991 0.222208 0.847245 -0.119148
O28   O     O_2   0.444290 0.214662 0.766137 -0.246951
O29   O     O_3   0.694152 0.304381 0.669355 -0.468219
H10   H     H_    0.757977 0.395426 0.671280 0.353011

loop_
_geom_bond_atom_site_label_1
_geom_bond_atom_site_label_2
_ccdc_geom_bond_type
Cu1   N2    S    
S5    O22   D    
C14   C18   S    
C1    C11   S    
S7    O29   S    
C4    C8    A    
C1    O2    A    
C14   S2    S    
C5    C20   A    
C10   C22   A    
S2    O14   S    
C19   O8    A    
C19   C21   S    
C18   O6    A    
S7    O28   D    
C3    C7    A    
C5    C6    A    
Cu2   O8    S    
S4    O19   D    
C16   N1    D    
C9    C20   A    
O17   H6    S    
S1    O11   S    
C16   C17   S    
C23   C24   A    
Cu1   O3    S    
Cu1   O1    S    
S1    O10   D    
O23   H8    S    
S5    O23   S    
N1    S5    S    
N2    Br3   S    
C15   H3    S    
S2    O13   D    
O26   H9    S    
S3    O15   D    
C23   S6    S    
S7    O27   D    
S6    O25   D    
S4    O20   S    
Cu1   Cu2   S    
C9    S1    S    
S5    O21   D    
O20   H7    S    
S3    O16   D    
C2    C4    A    
O11   H4    S    
C19   O7    A    
Cu1   O7    S    
Cu2   O2    S    
C8    C21   A    
C12   O4    A    
C17   Br2   S    
C6    C7    A    
C10   C12   S    
S1    O9    D    
Cu2   N1    S    
C22   H1    S    
C13   C15   S    
C2    C24   A    
C17   N2    D    
C20   Br5   S    
C12   O3    A    
S2    O12   D    
C14   C15   D    
C24   H2    S    
C4    C5    A    
S6    O26   S    
Cu2   O6    S    
C7    S7    S    
C8    Br6   S    
S3    O17   S    
C2    C3    A    
S6    O24   D    
C3    C10   A    
C13   Br1   S    
C11   C13   D    
C9    C21   A    
S4    O18   D    
C6    Br4   S    
C16   S4    S    
C1    O1    A    
C11   S3    S    
Cu1   O5    S    
O29   H10   S    
Cu2   O4    S    
O14   H5    S    
C22   C23   A    
C18   O5    A    
