data_mof_unit_30955.cif
_audit_creation_date              2012-12-10T17:37:47-0500
_audit_creation_method            fapswitch 2.2
_symmetry_space_group_name_H-M    P1
_symmetry_Int_Tables_number       1
_space_group_crystal_system       triclinic
_cell_length_a                    12.328299
_cell_length_b                    13.328317
_cell_length_c                    17.249433
_cell_angle_alpha                 105.813491
_cell_angle_beta                  74.363849
_cell_angle_gamma                 116.828725
_cell_volume                      2397.83001998

loop_
_atom_site_label
_atom_site_type_symbol
_atom_type_description
_atom_site_fract_x
_atom_site_fract_y
_atom_site_fract_z
_atom_type_partial_charge
C1    C     C_R   0.143867 0.713191 0.511645 0.764137
C2    C     C_R   0.903683 0.548770 0.802779 0.438409
C3    C     C_R   0.933065 0.479108 0.145874 0.286520
C4    C     C_R   0.924030 0.491807 0.230596 0.377444
C5    C     C_R   0.133921 0.505341 0.207592 -0.368314
C6    C     C_R   0.146760 0.503176 0.124614 0.455248
C7    C     C_R   0.048178 0.495793 0.094277 -0.114925
C8    C     C_2   0.021303 0.569087 0.988837 -0.154663
C9    C     C_2   0.066184 0.506666 0.008922 -0.136164
C10   C     C_R   0.023217 0.498251 0.260858 -0.257878
C11   C     C_R   0.715826 0.994411 0.373677 -0.206972
C12   C     C_R   0.989912 0.507870 0.652890 0.809473
C13   C     C_R   0.771786 0.165991 0.474587 -0.158580
C14   C     C_R   0.177804 0.902129 0.594593 -0.235455
C15   C     C_R   0.251794 0.015500 0.618170 -0.261499
C16   C     C_R   0.374376 0.063588 0.579467 0.299877
C17   C     C_R   0.427169 0.993516 0.518100 0.043412
C18   C     C_R   0.344750 0.881825 0.487146 0.030011
C19   C     C_R   0.556011 0.028897 0.483924 -0.049380
C20   C     C_R   0.592483 0.960792 0.411421 0.101938
C21   C     C_R   0.506062 0.859585 0.376248 -0.211738
C22   C     C_R   0.384402 0.820020 0.413798 -0.182371
C23   C     C_R   0.855133 0.286749 0.490995 0.859042
C24   C     C_R   0.651768 0.126064 0.519733 0.422409
C25   C     C_R   0.803727 0.097280 0.404311 -0.291049
C26   C     C_R   0.222578 0.834952 0.528867 -0.087205
C27   C     C_R   0.652410 0.686942 0.625443 0.353436
C28   C     C_R   0.259381 0.358877 0.383405 0.349745
C29   C     C_R   0.365873 0.335703 0.357525 0.363959
C30   C     C_R   0.462599 0.394930 0.401033 -0.366793
C31   C     C_R   0.456205 0.474930 0.471591 -0.044038
C32   C     C_R   0.348028 0.497861 0.496258 0.224845
C33   C     C_R   0.556384 0.534865 0.516699 -0.058160
C34   C     C_R   0.013575 0.497689 0.347510 0.871842
C35   C     C_R   0.552451 0.624733 0.582195 0.066226
C36   C     C_R   0.448620 0.649951 0.603936 -0.269785
C37   C     C_R   0.348182 0.586702 0.563092 -0.167179
C38   C     C_R   0.659517 0.506486 0.500728 -0.028569
C39   C     C_R   0.747503 0.650522 0.608717 -0.017967
C40   C     C_R   0.995863 0.527399 0.740074 -0.114897
C41   C     C_R   0.100849 0.531206 0.760387 -0.286057
C42   C     C_R   0.112886 0.550819 0.841142 -0.157375
C43   C     C_R   0.018375 0.563596 0.903574 0.101807
C44   C     C_R   0.914968 0.563503 0.884678 -0.274273
Cu1   Cu    Cu3+1 0.900140 0.524980 0.518800 0.964577
Cu2   Cu    Cu3+1 0.099860 0.475020 0.481200 0.936308
H1    H     H_    0.174745 0.518930 0.713782 0.180085
H2    H     H_    0.895617 0.125881 0.371141 0.188056
H3    H     H_    0.533162 0.809193 0.320023 0.142638
H4    H     H_    0.743470 0.943602 0.318000 0.151859
H5    H     H_    0.084436 0.866993 0.627636 0.156016
H6    H     H_    0.212121 0.067697 0.665608 0.142849
H7    H     H_    0.321084 0.741271 0.383248 0.159553
H8    H     H_    0.822737 0.695092 0.643000 0.131372
H9    H     H_    0.443297 0.717960 0.654291 0.179156
H10   H     H_    0.669121 0.437828 0.453397 0.167784
H11   H     H_    0.544878 0.380295 0.375157 0.183330
H12   H     H_    0.273247 0.611999 0.585494 0.198606
H13   H     H_    0.212460 0.515523 0.230563 0.183367
H14   H     H_    0.112749 0.459319 0.962260 0.137832
H15   H     H_    0.841401 0.570752 0.933830 0.133556
H16   H     H_    0.973965 0.615370 0.036193 0.175203
H17   H     H_    0.195460 0.554103 0.854526 0.145513
N1    N     N_R   0.749710 0.562810 0.547300 -0.212991
N2    N     N_R   0.249640 0.437820 0.453210 -0.249089
O1    O     O_R   0.025490 0.682370 0.523640 -0.601889
O2    O     O_R   0.194150 0.640180 0.491890 -0.602550
O3    O     O_R   0.905900 0.523560 0.631310 -0.528401
O4    O     O_R   0.074570 0.481370 0.599560 -0.614799
O5    O     O_R   0.805850 0.359820 0.508110 -0.547153
O6    O     O_R   0.974510 0.317630 0.476360 -0.561972
O7    O     O_R   0.925430 0.518630 0.400440 -0.558222
O8    O     O_R   0.094100 0.476440 0.368690 -0.587617
O9    O     O_3   0.259882 0.518454 0.074899 -0.607090
C45   C     C_3   0.261155 0.410926 0.034665 0.028460
H18   H     H_    0.315369 0.420776 0.972203 0.160791
H19   H     H_    0.167761 0.342252 0.026436 0.114918
C46   C     C_3   0.324225 0.373785 0.079913 -0.325239
H20   H     H_    0.417352 0.442069 0.087405 0.227128
H21   H     H_    0.268810 0.359587 0.141373 0.212071
C47   C     C_3   0.336823 0.263343 0.033684 -0.933439
H22   H     H_    0.244911 0.194398 0.024144 0.253276
H23   H     H_    0.377616 0.236041 0.069830 0.272004
H24   H     H_    0.397730 0.276701 0.973464 0.249340
O10   O     O_3   0.632842 0.179549 0.599796 -0.557952
C48   C     C_3   0.635140 0.115725 0.652233 0.060625
H25   H     H_    0.732071 0.132144 0.651209 0.134189
H26   H     H_    0.581724 0.022084 0.634257 0.087708
C49   C     C_3   0.577306 0.150580 0.739744 -0.385989
H27   H     H_    0.479655 0.132985 0.741476 0.212108
H28   H     H_    0.578307 0.098299 0.779730 0.172081
C50   C     C_3   0.646737 0.276537 0.773134 -0.684156
H29   H     H_    0.744713 0.295704 0.771709 0.237194
H30   H     H_    0.604013 0.297495 0.837378 0.209021
H31   H     H_    0.642072 0.330525 0.736242 0.305193
N3    N     N_2   0.435040 0.184352 0.595304 -0.365275
H32   H     H_    0.408565 0.221436 0.653838 0.244621
C51   C     C_3   0.433773 0.238367 0.533969 -0.662378
H33   H     H_    0.469046 0.331138 0.556476 0.237781
H34   H     H_    0.338184 0.208639 0.523168 0.206292
H35   H     H_    0.493882 0.220608 0.476093 0.224597
O11   O     O_3   0.814525 0.486167 0.282888 -0.603901
C52   C     C_3   0.792831 0.583762 0.287124 0.092059
H36   H     H_    0.692822 0.561363 0.309751 0.166826
H37   H     H_    0.812940 0.608744 0.226621 0.167471
C53   C     C_3   0.865346 0.686614 0.346818 -0.360810
H38   H     H_    0.842153 0.663753 0.408091 0.256782
H39   H     H_    0.965980 0.712080 0.324819 0.207798
C54   C     C_3   0.834701 0.788351 0.355319 -0.953330
H40   H     H_    0.859419 0.815579 0.295236 0.251348
H41   H     H_    0.887946 0.860962 0.399127 0.267762
H42   H     H_    0.734752 0.765595 0.378827 0.265023
O12   O     O_3   0.656173 0.780058 0.686521 -0.632039
C55   C     C_3   0.713785 0.880799 0.651911 0.027984
H43   H     H_    0.690192 0.947606 0.697959 0.164225
H44   H     H_    0.677458 0.870182 0.596177 0.134750
C56   C     C_3   0.855208 0.922816 0.633015 -0.376538
H45   H     H_    0.888875 0.922544 0.686568 0.219527
H46   H     H_    0.882071 0.865043 0.579482 0.213503
C57   C     C_3   0.918497 0.043003 0.612753 -0.915897
H47   H     H_    0.883069 0.046542 0.561187 0.258483
H48   H     H_    0.019428 0.067054 0.594629 0.261953
H49   H     H_    0.902749 0.105400 0.667179 0.248405
N4    N     N_2   0.171817 0.314858 0.329937 -0.355853
H50   H     H_    0.202480 0.362277 0.284225 0.243868
C58   C     C_3   0.124082 0.193914 0.296251 -0.695952
H51   H     H_    0.042335 0.171272 0.269154 0.204128
H52   H     H_    0.099570 0.142264 0.344130 0.221602
H53   H     H_    0.189795 0.172592 0.244004 0.253016
O13   O     O_3   0.382887 0.267182 0.282869 -0.616086
C59   C     C_3   0.400867 0.173798 0.292917 0.048015
H54   H     H_    0.327081 0.093530 0.268325 0.152759
H55   H     H_    0.393818 0.169003 0.357813 0.133543
C60   C     C_3   0.525562 0.177193 0.243702 -0.348127
H56   H     H_    0.522781 0.161092 0.177474 0.218869
H57   H     H_    0.599677 0.262899 0.258949 0.246931
C61   C     C_3   0.556585 0.087900 0.261342 -0.910684
H58   H     H_    0.565080 0.106162 0.326709 0.265218
H59   H     H_    0.645892 0.090619 0.223196 0.252126
H60   H     H_    0.483705 0.001028 0.247034 0.260878
O14   O     O_3   0.829906 0.455616 0.114780 -0.617449
C62   C     C_3   0.782955 0.340139 0.075943 0.083336
H61   H     H_    0.750333 0.282807 0.121409 0.139259
H62   H     H_    0.854080 0.320290 0.027008 0.142967
C63   C     C_3   0.674654 0.317058 0.036822 -0.325893
H63   H     H_    0.598723 0.327793 0.085552 0.230408
H64   H     H_    0.704326 0.379801 0.995958 0.223940
C64   C     C_3   0.627636 0.196729 0.986712 -0.953892
H65   H     H_    0.701361 0.186121 0.935876 0.260940
H66   H     H_    0.548130 0.182079 0.960072 0.261662
H67   H     H_    0.597299 0.132009 0.025949 0.256985
O15   O     O_3   0.798064 0.540817 0.782156 -0.613125
C65   C     C_3   0.758130 0.626976 0.829295 0.065298
H68   H     H_    0.747924 0.669379 0.786190 0.176050
H69   H     H_    0.824582 0.696330 0.867911 0.116002
C66   C     C_3   0.631578 0.572373 0.881301 -0.363984
H70   H     H_    0.565212 0.508949 0.840673 0.224525
H71   H     H_    0.637773 0.526637 0.923917 0.207860
C67   C     C_3   0.582921 0.662030 0.930612 -0.888174
H72   H     H_    0.646930 0.725451 0.972629 0.249806
H73   H     H_    0.491334 0.620045 0.967616 0.279764
H74   H     H_    0.572722 0.706741 0.888997 0.268725

loop_
_geom_bond_atom_site_label_1
_geom_bond_atom_site_label_2
_ccdc_geom_bond_type
C12   O4    A    
C58   H51   S    
C41   C42   A    
C35   C36   A    
C3    O14   S    
C64   H67   S    
C43   C44   A    
C59   C60   S    
C47   H24   S    
C60   C61   S    
C21   H3    S    
C63   H63   S    
Cu1   Cu2   S    
C39   N1    A    
C61   H59   S    
C66   H70   S    
C64   H66   S    
C3    C7    A    
C56   H46   S    
C14   H5    S    
C5    C6    A    
C48   H26   S    
C39   H8    S    
C53   H38   S    
C11   C25   A    
C15   C16   A    
C30   H11   S    
C13   C23   S    
Cu2   O4    S    
C54   H41   S    
C63   H64   S    
O14   C62   S    
C62   H61   S    
C67   H72   S    
C27   C39   A    
C8    C9    D    
N3    C51   S    
C67   H73   S    
C49   H28   S    
C24   O10   S    
C37   H12   S    
C57   H49   S    
C21   C22   A    
N3    H32   S    
Cu1   O7    S    
C23   O5    A    
C13   C25   A    
C47   H23   S    
C57   H48   S    
C6    O9    S    
C22   H7    S    
C38   N1    A    
C2    O15   S    
C61   H60   S    
C11   C20   A    
C16   N3    S    
C62   C63   S    
O9    C45   S    
C5    H13   S    
C23   O6    A    
C64   H65   S    
Cu2   N2    S    
C10   C34   S    
C56   C57   S    
C2    C44   A    
C48   H25   S    
C17   C19   A    
C60   H57   S    
C58   H53   S    
C27   C35   A    
O10   C48   S    
C28   N2    A    
C50   H31   S    
C47   H22   S    
C13   C24   A    
C4    O11   S    
C65   C66   S    
C1    O1    A    
C12   C40   S    
C45   H18   S    
C29   C30   A    
C12   O3    A    
C31   C32   A    
C30   C31   A    
C18   C26   A    
C20   C21   A    
Cu1   O3    S    
C50   H30   S    
C17   C18   A    
C41   H1    S    
C67   H74   S    
C52   H37   S    
C32   C37   A    
C14   C26   A    
C49   C50   S    
C45   H19   S    
C25   H2    S    
Cu2   O6    S    
C6    C7    A    
C27   O12   S    
C40   C41   A    
C51   H34   S    
C1    C26   S    
C62   H62   S    
C54   H42   S    
C65   H69   S    
C42   C43   A    
C4    C10   A    
C59   H54   S    
C34   O7    A    
C52   H36   S    
C63   C64   S    
C57   H47   S    
N4    C58   S    
O12   C55   S    
C7    C9    S    
C28   C29   A    
C31   C33   A    
C58   H52   S    
Cu1   O5    S    
C18   C22   A    
C66   C67   S    
C59   H55   S    
C48   C49   S    
C55   H44   S    
C28   N4    S    
C55   H43   S    
C60   H56   S    
C1    O2    A    
C44   H15   S    
C51   H35   S    
C61   H58   S    
Cu1   N1    S    
C33   C38   A    
C9    H14   S    
C19   C20   A    
C15   H6    S    
O13   C59   S    
C49   H27   S    
Cu2   O2    S    
C36   H9    S    
C56   H45   S    
C46   H20   S    
C46   C47   S    
C16   C17   A    
C53   H39   S    
C8    C43   S    
C66   H71   S    
C50   H29   S    
C33   C35   A    
C19   C24   A    
C52   C53   S    
C46   H21   S    
O11   C52   S    
C45   C46   S    
C55   C56   S    
C34   O8    A    
C29   O13   S    
C2    C40   A    
C5    C10   A    
C38   H10   S    
O15   C65   S    
C36   C37   A    
C51   H33   S    
Cu1   O1    S    
C11   H4    S    
C14   C15   A    
C32   N2    A    
C65   H68   S    
C54   H40   S    
C42   H17   S    
Cu2   O8    S    
C3    C4    A    
C8    H16   S    
N4    H50   S    
C53   C54   S    
