data_mof_unit_20290.cif
_audit_creation_date              2012-10-26T20:20:45-0400
_audit_creation_method            fapswitch 2.2
_symmetry_space_group_name_H-M    P1
_symmetry_Int_Tables_number       1
_space_group_crystal_system       triclinic
_cell_length_a                    8.909363
_cell_length_b                    10.899594
_cell_length_c                    9.640588
_cell_angle_alpha                 90.818729
_cell_angle_beta                  98.189567
_cell_angle_gamma                 95.324838
_cell_volume                      922.277117946

loop_
_atom_site_label
_atom_site_type_symbol
_atom_type_description
_atom_site_fract_x
_atom_site_fract_y
_atom_site_fract_z
_atom_type_partial_charge
C1    C     C_R   0.505312 0.262854 0.499397 0.564623
C2    C     C_R   0.465426 0.065447 0.613645 -0.107703
C3    C     C_R   0.492049 0.871052 0.502000 0.003505
C4    C     C_R   0.507951 0.128948 0.498000 0.003504
C5    C     C_R   0.404817 0.416120 0.059959 0.217989
C6    C     C_R   0.595183 0.583880 0.940041 0.217990
C7    C     C_R   0.403383 0.417034 0.911707 0.205310
C8    C     C_R   0.596617 0.582966 0.088293 0.205310
C9    C     C_R   0.494688 0.737146 0.500603 0.564623
C10   C     C_R   0.204454 0.499361 0.464358 0.568927
C11   C     C_R   0.795545 0.500639 0.535642 0.568927
C12   C     C_2   0.038920 0.487902 0.445948 0.064522
C13   C     C_2   0.961079 0.512098 0.554052 0.064522
C14   C     C_R   0.546474 0.061920 0.384012 0.095206
C15   C     C_R   0.453526 0.938079 0.615988 0.095206
C16   C     C_R   0.534574 0.934553 0.386355 -0.107703
Cu1   Cu    Cu3+1 0.500000 0.500020 0.640660 1.088825
Cu2   Cu    Cu3+1 0.500000 0.499980 0.359340 1.088825
H1    H     H_    0.561360 0.885465 0.296690 0.187514
H2    H     H_    0.438640 0.114535 0.703310 0.187514
I1    I     I_    0.938341 0.413914 0.242416 -0.167666
I2    I     I_    0.061659 0.586086 0.757584 -0.167666
I3    I     I_    0.638646 0.136808 0.208344 -0.198906
I4    I     I_    0.361354 0.863192 0.791656 -0.198906
I5    I     I_    0.259201 0.276216 0.141423 -0.135462
I6    I     I_    0.740799 0.723784 0.858577 -0.135462
I7    I     I_    0.241283 0.288029 0.784451 -0.208710
I8    I     I_    0.758717 0.711971 0.215549 -0.208709
N1    N     N_R   0.500040 0.500030 0.852080 -0.257757
N2    N     N_R   0.499960 0.499970 0.147920 -0.257757
O1    O     O_R   0.499990 0.319660 0.618740 -0.504155
O2    O     O_R   0.500010 0.680340 0.381260 -0.504155
O3    O     O_R   0.499990 0.319630 0.381170 -0.465716
O4    O     O_R   0.500010 0.680370 0.618830 -0.465716
O5    O     O_R   0.274840 0.500010 0.591370 -0.479722
O6    O     O_R   0.725160 0.499990 0.408630 -0.479722
O7    O     O_R   0.274830 0.499980 0.353800 -0.470624
O8    O     O_R   0.725170 0.500020 0.646200 -0.470624

loop_
_geom_bond_atom_site_label_1
_geom_bond_atom_site_label_2
_ccdc_geom_bond_type
C14   I3    S    
C11   O8    A    
C2    C4    A    
C10   O5    A    
C7    N1    A    
Cu1   N1    S    
C1    C4    S    
C8    N2    A    
Cu1   Cu2   S    
C1    O3    A    
C2    C15   A    
C11   C13   S    
C6    I6    S    
C10   C12   S    
C16   H1    S    
C5    I5    S    
C11   O6    A    
C3    C9    S    
Cu2   O7    S    
C13   I2    S    
Cu1   O8    S    
C10   O7    A    
C4    C14   A    
C9    O4    A    
Cu1   O1    S    
Cu2   O3    S    
C14   C16   A    
Cu2   O2    S    
Cu1   O4    S    
Cu2   N2    S    
C2    H2    S    
C1    O1    A    
C6    N1    A    
C7    I7    S    
C12   C13   D    
C8    I8    S    
C5    N2    A    
C5    C7    A    
C15   I4    S    
C3    C15   A    
C6    C8    A    
Cu1   O5    S    
C9    O2    A    
Cu2   O6    S    
C12   I1    S    
C3    C16   A    
