data_mof_unit_13385.cif
_audit_creation_date              2012-12-11T14:52:39-0500
_audit_creation_method            fapswitch 2.2
_symmetry_space_group_name_H-M    P1
_symmetry_Int_Tables_number       1
_space_group_crystal_system       triclinic
_cell_length_a                    18.759246
_cell_length_b                    10.96952
_cell_length_c                    18.813162
_cell_angle_alpha                 89.922767
_cell_angle_beta                  90.616102
_cell_angle_gamma                 89.962093
_cell_volume                      3871.14283241

loop_
_atom_site_label
_atom_site_type_symbol
_atom_type_description
_atom_site_fract_x
_atom_site_fract_y
_atom_site_fract_z
_atom_type_partial_charge
Br1   Br    Br    0.377054 0.419116 0.425324 -0.520151
Br2   Br    Br    0.607023 0.540124 0.592008 -0.503437
Br3   Br    Br    0.877034 0.919060 0.425345 -0.516704
Br4   Br    Br    0.107020 0.040333 0.592063 -0.509217
C1    C     C_R   0.271265 0.045043 0.852610 0.540585
C2    C     C_R   0.704804 0.513867 0.042359 -0.181771
C3    C     C_3   0.013975 0.326211 0.067426 0.049994
C4    C     C_R   0.795159 0.013547 0.957750 -0.181173
C5    C     C_R   0.183000 0.084162 0.029294 -0.175630
C6    C     C_R   0.309359 0.556035 0.042630 -0.149512
C7    C     C_R   0.714661 0.484326 0.970953 -0.143774
C8    C     C_R   0.785248 0.983985 0.029175 -0.144111
C9    C     C_R   0.190782 0.055637 0.957551 -0.150174
C10   C     C_R   0.249213 0.595950 0.078900 -0.031088
C11   C     C_R   0.776381 0.523301 0.936149 -0.023548
C12   C     C_R   0.723450 0.022927 0.063859 -0.022915
C13   C     C_R   0.710693 0.999081 0.138967 0.548233
C14   C     C_R   0.250847 0.095603 0.921160 -0.030715
C15   C     C_R   0.199434 0.670728 0.044224 -0.098500
C16   C     C_R   0.829558 0.584109 0.974160 -0.108071
C17   C     C_R   0.670228 0.083636 0.025728 -0.108897
C18   C     C_R   0.300592 0.170368 0.955725 -0.097843
C19   C     C_R   0.203940 0.693477 0.972673 0.211178
C20   C     C_R   0.821800 0.610700 0.045080 0.198030
C21   C     C_R   0.678051 0.110293 0.954790 0.197385
C22   C     C_R   0.296081 0.193211 0.027243 0.211676
C23   C     C_R   0.263995 0.651295 0.934636 0.022719
C24   C     C_R   0.789194 0.499282 0.861078 0.549746
C25   C     C_R   0.757197 0.580303 0.079683 0.020433
C26   C     C_R   0.742747 0.079985 0.920304 0.020398
C27   C     C_R   0.236104 0.151007 0.065385 0.023823
C28   C     C_R   0.464180 0.727827 0.527653 -0.087457
C29   C     C_R   0.472076 0.731815 0.455140 -0.123045
C30   C     C_R   0.964162 0.227831 0.527647 -0.087260
C31   C     C_R   0.972063 0.231816 0.455135 -0.122560
C32   C     C_R   0.500458 0.835547 0.423454 0.016157
C33   C     C_R   0.482913 0.828700 0.569842 0.042125
C34   C     C_R   0.000447 0.335548 0.423449 0.016173
C35   C     C_R   0.228752 0.545190 0.147420 0.532004
C36   C     C_R   0.982898 0.328701 0.569836 0.042466
C37   C     C_R   0.515421 0.939748 0.464634 -0.134710
C38   C     C_R   0.506381 0.936354 0.537904 -0.146108
C39   C     C_R   0.015405 0.439751 0.464628 -0.134639
C40   C     C_R   0.006364 0.436357 0.537898 -0.146309
C41   C     C_R   0.467370 0.820776 0.857062 0.554981
C42   C     C_R   0.530622 0.821896 0.144058 0.543889
C43   C     C_R   0.969365 0.321767 0.855941 0.549990
C44   C     C_R   0.032566 0.320914 0.142960 0.549580
C45   C     C_R   0.210113 0.688561 0.525671 -0.140098
C46   C     C_3   0.491595 0.711826 0.979790 -0.109415
C47   C     C_R   0.816357 0.583337 0.455667 -0.121446
C48   C     C_R   0.710082 0.188489 0.525689 -0.139607
C49   C     C_R   0.316341 0.083337 0.455678 -0.122256
C50   C     C_R   0.210550 0.678767 0.453277 -0.168802
C51   C     C_R   0.822442 0.576123 0.528115 -0.140699
C52   C     C_R   0.710526 0.178712 0.453296 -0.169337
C53   C     C_R   0.322433 0.076110 0.528123 -0.139633
C54   C     C_R   0.253682 0.591284 0.421528 0.034361
C55   C     C_R   0.761165 0.565464 0.570175 0.042695
C56   C     C_R   0.753666 0.091243 0.421544 0.033299
C57   C     C_3   0.443356 0.774267 0.035029 -0.135371
C58   C     C_R   0.261157 0.065504 0.570190 0.045063
C59   C     C_R   0.305139 0.526286 0.462621 0.137355
C60   C     C_R   0.693373 0.555294 0.538640 0.126385
C61   C     C_R   0.805118 0.026232 0.462638 0.136139
C62   C     C_R   0.193358 0.055416 0.538668 0.127044
C63   C     C_R   0.304320 0.537319 0.535728 -0.116306
C64   C     C_R   0.687699 0.562723 0.465576 -0.107240
C65   C     C_R   0.804297 0.037261 0.535745 -0.116045
C66   C     C_R   0.187674 0.062861 0.465605 -0.107608
C67   C     C_R   0.255371 0.615011 0.567354 -0.002400
C68   C     C_3   0.056724 0.274316 0.965112 -0.133705
C69   C     C_R   0.748871 0.582671 0.424677 -0.002013
C70   C     C_R   0.755348 0.114951 0.567371 -0.000741
C71   C     C_R   0.248851 0.082730 0.424696 -0.003194
C72   C     C_R   0.272797 0.682418 0.859470 0.563239
C73   C     C_R   0.740646 0.634938 0.148725 0.547735
C74   C     C_R   0.759347 0.134800 0.851266 0.553555
C75   C     C_R   0.227259 0.182274 0.140501 0.562374
C76   C     C_R   0.272697 0.042659 0.644413 0.574539
C77   C     C_R   0.730186 0.047429 0.353009 0.570421
C78   C     C_R   0.772701 0.542644 0.644405 0.583554
C79   C     C_3   0.008560 0.211925 0.020485 -0.109357
C80   C     C_R   0.230189 0.547438 0.353005 0.560445
C81   C     C_R   0.466573 0.822928 0.644937 0.561813
C82   C     C_R   0.529541 0.824196 0.352710 0.550258
C83   C     C_R   0.966565 0.322927 0.644933 0.561282
C84   C     C_R   0.029538 0.324196 0.352707 0.551021
C85   C     C_R   0.261033 0.641591 0.641751 0.553034
C86   C     C_R   0.740270 0.634131 0.355236 0.553609
C87   C     C_R   0.761024 0.141563 0.641761 0.548139
C88   C     C_R   0.240263 0.134151 0.355243 0.559218
C89   C     C_3   0.503854 0.944715 0.022435 -0.082952
C90   C     C_R   0.317171 0.584573 0.970860 -0.174321
C91   C     C_3   0.552053 0.881982 0.966795 -0.114908
C92   C     C_3   0.947814 0.381947 0.033047 -0.116820
C93   C     C_3   0.995939 0.444628 0.977269 -0.082550
C94   C     C_3   0.437060 0.888146 0.986796 -0.103517
C95   C     C_3   0.558142 0.768300 0.014851 -0.123783
C96   C     C_3   0.941928 0.268118 0.985268 -0.126296
C97   C     C_3   0.062819 0.388341 0.013070 -0.101713
C98   C     C_3   0.485981 0.825951 0.932579 0.048618
C99   C     C_3   0.509463 0.830396 0.069346 0.040931
C100  C     C_3   0.990529 0.330150 0.930639 0.039947
Cl1   Cl    Cl    0.127433 0.763892 0.935213 -0.620207
Cl2   Cl    Cl    0.897001 0.681020 0.085588 -0.611058
Cl3   Cl    Cl    0.602844 0.180734 0.914138 -0.607666
Cl4   Cl    Cl    0.372429 0.263976 0.064550 -0.622642
Cr1   Cr    Cr6+3 0.229630 0.835900 0.747350 1.106991
Cr2   Cr    Cr6+3 0.614200 0.677120 0.250660 1.040365
Cr3   Cr    Cr6+3 0.885800 0.177120 0.749340 1.052957
Cr4   Cr    Cr6+3 0.114200 0.177120 0.250660 1.043583
Cr5   Cr    Cr6+3 0.770370 0.835900 0.252650 1.117233
Cr6   Cr    Cr6+3 0.729630 0.335900 0.747350 1.110951
Cr7   Cr    Cr6+3 0.270370 0.335900 0.252650 1.113461
Cr8   Cr    Cr6+3 0.387410 0.989850 0.750850 1.060844
Cr9   Cr    Cr6+3 0.612590 0.989850 0.249150 1.042358
Cr10  Cr    Cr6+3 0.887410 0.489850 0.750850 1.045040
Cr11  Cr    Cr6+3 0.112590 0.489850 0.249150 1.058885
Cr12  Cr    Cr6+3 0.385800 0.677120 0.749340 1.056487
H1    H     H_    0.386894 0.937209 0.973427 0.136702
H2    H     H_    0.875623 0.578325 0.551053 0.155478
H3    H     H_    0.672799 0.232961 0.422719 0.151889
H4    H     H_    0.375617 0.078253 0.551053 0.155688
H5    H     H_    0.342379 0.486360 0.567766 0.163384
H6    H     H_    0.634888 0.562794 0.441655 0.175484
H7    H     H_    0.842358 0.986307 0.567784 0.163196
H8    H     H_    0.134861 0.062993 0.441692 0.175488
H9    H     H_    0.506198 0.040201 0.041550 0.178897
H10   H     H_    0.596258 0.918710 0.934916 0.160786
H11   H     H_    0.903538 0.418701 0.064800 0.158615
H12   H     H_    0.608467 0.719511 0.027839 0.128123
H13   H     H_    0.993452 0.540049 0.957901 0.179096
H14   H     H_    0.488003 0.615862 0.961504 0.148193
H15   H     H_    0.399765 0.734836 0.066749 0.130361
H16   H     H_    0.100394 0.234891 0.933515 0.133614
H17   H     H_    0.012286 0.116005 0.038989 0.147794
H18   H     H_    0.364057 0.552594 0.943538 0.159846
H19   H     H_    0.655119 0.489218 0.067396 0.158394
H20   H     H_    0.844904 0.988978 0.932805 0.159000
H21   H     H_    0.136164 0.052144 0.056690 0.159749
H22   H     H_    0.350033 0.503727 0.069762 0.205863
H23   H     H_    0.891705 0.219115 0.972382 0.126744
H24   H     H_    0.673335 0.434814 0.942658 0.196238
H25   H     H_    0.826614 0.934546 0.057587 0.196236
H26   H     H_    0.150126 0.003367 0.930525 0.207238
H27   H     H_    0.152575 0.703979 0.071299 0.192963
H28   H     H_    0.878200 0.612018 0.948445 0.171214
H29   H     H_    0.621543 0.111492 0.051384 0.170980
H30   H     H_    0.347401 0.203675 0.928581 0.193732
H31   H     H_    0.443245 0.644877 0.550569 0.175136
H32   H     H_    0.459940 0.651101 0.424314 0.181478
H33   H     H_    0.943224 0.144883 0.550564 0.175286
H34   H     H_    0.112885 0.437610 0.026334 0.138162
H35   H     H_    0.959928 0.151101 0.424309 0.182122
H36   H     H_    0.537871 0.021034 0.441012 0.152554
H37   H     H_    0.518730 0.016241 0.569490 0.138732
H38   H     H_    0.037854 0.521037 0.441006 0.152845
H39   H     H_    0.018712 0.516244 0.569483 0.138001
H40   H     H_    0.174539 0.755272 0.548656 0.181919
H41   H     H_    0.863852 0.597436 0.424372 0.164071
H42   H     H_    0.674501 0.255191 0.548672 0.182000
H43   H     H_    0.363837 0.097385 0.424376 0.163280
H44   H     H_    0.172820 0.733009 0.422700 0.152041
O1    O     O_R   0.214270 0.709000 0.827470 -0.432311
O2    O     O_R   0.543270 0.717630 0.330160 -0.509192
O3    O     O_R   0.956730 0.217630 0.669840 -0.488492
O4    O     O_R   0.043270 0.217630 0.330160 -0.508805
O5    O     O_R   0.320620 0.625640 0.672920 -0.508530
O6    O     O_R   0.679380 0.625640 0.327080 -0.513750
O7    O     O_R   0.820620 0.125640 0.672920 -0.511568
O8    O     O_R   0.179380 0.125640 0.327080 -0.511068
O9    O     O_3   0.334280 0.834290 0.749180 -0.303919
O10   O     O_3   0.665720 0.834290 0.250820 -0.288644
O11   O     O_3   0.834280 0.334290 0.749180 -0.300372
O12   O     O_R   0.785730 0.709000 0.172530 -0.451951
O13   O     O_3   0.165720 0.334290 0.250820 -0.291786
O14   O     O_R   0.236160 0.958490 0.823130 -0.486811
O15   O     O_R   0.763840 0.958490 0.176870 -0.488077
O16   O     O_R   0.736160 0.458490 0.823130 -0.479097
O17   O     O_R   0.263840 0.458490 0.176870 -0.492805
O18   O     O_R   0.332080 0.075470 0.831280 -0.519472
O19   O     O_R   0.667920 0.075470 0.168720 -0.514299
O20   O     O_R   0.832080 0.575470 0.831280 -0.508648
O21   O     O_R   0.167920 0.575470 0.168720 -0.522506
O22   O     O_R   0.446300 0.918110 0.826620 -0.479522
O23   O     O_R   0.714270 0.209000 0.827470 -0.448662
O24   O     O_R   0.553700 0.918110 0.173380 -0.517543
O25   O     O_R   0.946300 0.418110 0.826620 -0.515895
O26   O     O_R   0.053700 0.418110 0.173380 -0.481203
O27   O     O_R   0.457110 0.716200 0.831760 -0.520971
O28   O     O_R   0.542890 0.716200 0.168240 -0.508060
O29   O     O_R   0.957110 0.216200 0.831760 -0.502077
O30   O     O_R   0.042890 0.216200 0.168240 -0.527154
O31   O     O_R   0.320980 0.624310 0.823030 -0.509957
O32   O     O_R   0.679020 0.624310 0.176970 -0.520783
O33   O     O_R   0.820980 0.124310 0.823030 -0.517667
O34   O     O_R   0.285730 0.209000 0.172530 -0.437723
O35   O     O_R   0.179020 0.124310 0.176970 -0.514961
O36   O     O_R   0.213890 0.710430 0.665540 -0.504815
O37   O     O_R   0.786110 0.710430 0.334460 -0.469234
O38   O     O_R   0.713890 0.210430 0.665540 -0.504910
O39   O     O_R   0.286110 0.210430 0.334460 -0.469406
O40   O     O_R   0.235810 0.959820 0.673020 -0.464034
O41   O     O_R   0.764190 0.959820 0.326980 -0.446648
O42   O     O_R   0.735810 0.459820 0.673020 -0.458508
O43   O     O_R   0.264190 0.459820 0.326980 -0.451917
O44   O     O_R   0.331700 0.076900 0.669350 -0.527173
O45   O     O_R   0.445950 0.919440 0.676520 -0.509216
O46   O     O_R   0.668300 0.076900 0.330650 -0.527104
O47   O     O_R   0.831700 0.576900 0.669350 -0.524147
O48   O     O_R   0.168300 0.576900 0.330650 -0.529617
O49   O     O_R   0.554050 0.919440 0.323480 -0.501975
O50   O     O_R   0.945950 0.419440 0.676520 -0.511570
O51   O     O_R   0.054050 0.419440 0.323480 -0.499762
O52   O     O_R   0.456730 0.717630 0.669840 -0.488068

loop_
_geom_bond_atom_site_label_1
_geom_bond_atom_site_label_2
_ccdc_geom_bond_type
Cr9   O10   S    
C70   C87   S    
C94   H1    S    
C3    C79   S    
C18   H30   S    
Cr11  O51   S    
C12   C17   A    
C84   O51   A    
C51   C55   A    
C37   C38   A    
C95   C99   S    
C57   C94   S    
C82   O2    A    
C55   C78   S    
C93   H13   S    
C39   H38   S    
C89   C99   S    
Cr3   O7    S    
C53   C58   A    
Br3   C61   S    
C3    C92   S    
C21   Cl3   S    
C46   C95   S    
C64   H6    S    
C95   H12   S    
Cr3   O11   S    
C60   C64   A    
C36   C83   S    
C33   C81   S    
Cr9   O46   S    
C57   C99   S    
C73   O32   A    
C31   H35   S    
C69   C86   S    
Cr7   O43   S    
C63   H5    S    
Cr10  O25   S    
Cr1   O9    S    
C41   O22   A    
C68   H16   S    
C48   H42   S    
C68   C97   S    
C6    C90   A    
C91   C95   S    
C66   H8    S    
C45   C50   A    
C19   Cl1   S    
C2    H19   S    
C29   C32   A    
C26   C74   S    
C79   H17   S    
C30   C31   A    
C6    H22   S    
C33   C38   A    
C5    C9    A    
C20   C25   A    
C47   C69   A    
C10   C35   S    
C7    C11   A    
Cr1   O14   S    
C41   O27   A    
C96   C100  S    
C83   O3    A    
C8    C12   A    
C12   C13   S    
C84   O4    A    
Cr8   O18   S    
C91   H10   S    
C16   H28   S    
C45   H40   S    
C74   O33   A    
C17   H29   S    
C7    H24   S    
Cr4   O35   S    
C44   O26   A    
C91   C98   S    
C37   H36   S    
C13   O15   A    
C77   O46   A    
C51   H2    S    
C22   C27   A    
C89   C91   S    
C75   O34   A    
Cr8   O9    S    
C32   C37   A    
C49   C71   A    
C9    H26   S    
Cr4   O8    S    
C89   H9    S    
Br1   C59   S    
Cr7   O17   S    
Br2   C60   S    
Cr2   O10   S    
C11   C16   A    
Cr7   O34   S    
C59   C63   A    
Cr12  O31   S    
C75   O35   A    
C58   C62   A    
C87   O38   A    
C52   H3    S    
C16   C20   A    
Cr9   O19   S    
C65   C70   A    
C31   C34   A    
C46   H14   S    
Cr12  O27   S    
C22   Cl4   S    
C2    C7    A    
C5    H21   S    
C49   H43   S    
C1    C14   S    
C68   C100  S    
C47   C51   A    
C32   C82   S    
C64   C69   A    
C94   C98   S    
Cr8   O22   S    
C29   H32   S    
C15   H27   S    
Cr6   O23   S    
Cr6   O42   S    
Cr7   O39   S    
Cr10  O47   S    
Cr5   O41   S    
C8    H25   S    
C43   O25   A    
C15   C19   A    
C39   C40   A    
Cr11  O21   S    
Cr8   O45   S    
C72   O31   A    
C54   C80   S    
C56   C77   S    
C13   O19   A    
C67   C85   S    
C4    C8    A    
C65   H7    S    
C92   C93   S    
C86   O6    A    
Cr6   O38   S    
Cr11  O48   S    
C25   C73   S    
C72   O1    A    
Cr10  O50   S    
C35   O17   A    
C28   C33   A    
Cr6   O16   S    
Cr9   O49   S    
C24   O16   A    
Cr4   O30   S    
Cr7   O13   S    
C88   O39   A    
Cr1   O1    S    
C71   C88   S    
Cr3   O29   S    
Cr5   O12   S    
C50   H44   S    
C9    C14   A    
Cr6   O11   S    
Cr5   O15   S    
C56   C61   A    
C46   C98   S    
C73   O12   A    
C19   C23   A    
C79   C96   S    
C92   H11   S    
Cr2   O32   S    
C90   H18   S    
C30   C36   A    
C81   O52   A    
C38   H37   S    
C20   Cl2   S    
C23   C72   S    
Cr2   O6    S    
C1    O18   A    
C78   O42   A    
C57   H15   S    
C77   O41   A    
C78   O47   A    
C50   C54   A    
C30   H33   S    
C58   C76   S    
C21   C26   A    
C46   C57   S    
C85   O36   A    
C17   C21   A    
C49   C53   A    
C43   C100  S    
C44   O30   A    
C14   C18   A    
C10   C15   A    
C43   O29   A    
Cr1   O40   S    
C54   C59   A    
C42   O28   A    
C23   C90   A    
C96   H23   S    
C81   O45   A    
Cr10  O11   S    
C80   O48   A    
C27   C75   S    
Cr10  O20   S    
Cr12  O52   S    
C42   C99   S    
C62   C66   A    
C48   C70   A    
C87   O7    A    
C93   C100  S    
C4    H20   S    
C4    C26   A    
C28   C29   A    
C86   O37   A    
C24   O20   A    
C82   O49   A    
C85   O5    A    
C34   C39   A    
Cr5   O37   S    
C3    C44   S    
C53   H4    S    
Br4   C62   S    
Cr2   O2    S    
C80   O43   A    
C11   C24   S    
C76   O40   A    
C28   H31   S    
C97   H34   S    
C88   O8    A    
C61   C65   A    
C92   C96   S    
Cr11  O26   S    
Cr2   O28   S    
C83   O50   A    
C47   H41   S    
C63   C67   A    
C76   O44   A    
C52   C56   A    
Cr12  O5    S    
C93   C97   S    
C1    O14   A    
C68   C79   S    
C41   C98   S    
C5    C27   A    
C18   C22   A    
C35   O21   A    
C55   C60   A    
Cr12  O9    S    
C36   C40   A    
C2    C25   A    
Cr3   O3    S    
Cr8   O44   S    
C45   C67   A    
C34   C84   S    
C66   C71   A    
Cr9   O24   S    
C40   H39   S    
Cr5   O10   S    
Cr1   O36   S    
C74   O23   A    
Cr11  O13   S    
C42   O24   A    
C89   C94   S    
Cr3   O33   S    
C48   C52   A    
C6    C10   A    
Cr4   O13   S    
C3    C97   S    
Cr4   O4    S    
