data_mof_unit_58159.cif
_audit_creation_date              2012-12-10T21:26:09-0500
_audit_creation_method            fapswitch 2.2
_symmetry_space_group_name_H-M    P1
_symmetry_Int_Tables_number       1
_space_group_crystal_system       triclinic
_cell_length_a                    8.581693
_cell_length_b                    16.254182
_cell_length_c                    16.956039
_cell_angle_alpha                 87.355592
_cell_angle_beta                  92.992207
_cell_angle_gamma                 101.023213
_cell_volume                      2316.79008596

loop_
_atom_site_label
_atom_site_type_symbol
_atom_type_description
_atom_site_fract_x
_atom_site_fract_y
_atom_site_fract_z
_atom_type_partial_charge
C1    C     C_R   0.497041 0.488588 0.652459 0.879259
C2    C     C_R   0.396850 0.150366 0.423533 -0.355014
C3    C     C_R   0.601083 0.763193 0.571231 0.106590
C4    C     C_R   0.398876 0.236818 0.428773 0.106519
C5    C     C_R   0.800630 0.521848 0.501111 0.993338
C6    C     C_R   0.199370 0.478152 0.498888 0.993488
C7    C     C_2   0.966812 0.533610 0.501525 -0.369375
C8    C     C_2   0.033188 0.466390 0.498472 -0.369397
C9    C     C_R   0.488654 0.481138 0.737670 -0.032551
C10   C     C_R   0.513493 0.519056 0.262437 -0.032560
C11   C     C_R   0.464659 0.550232 0.778558 -0.210941
C12   C     C_R   0.503210 0.511433 0.347553 0.879314
C13   C     C_R   0.539172 0.450171 0.221750 -0.211509
C14   C     C_R   0.461786 0.545566 0.859846 -0.155335
C15   C     C_R   0.544771 0.455164 0.140553 -0.155156
C16   C     C_R   0.484532 0.471565 0.901553 0.321153
C17   C     C_R   0.522952 0.529254 0.098733 0.321130
C18   C     C_R   0.501614 0.401501 0.860643 -0.172241
C19   C     C_R   0.504334 0.599135 0.139501 -0.172353
C20   C     C_R   0.503998 0.406088 0.778754 -0.196695
C21   C     C_R   0.499287 0.594237 0.221299 -0.196453
C22   C     C_2   0.660297 0.284503 0.611474 0.388276
C23   C     C_R   0.439230 0.760252 0.452915 0.072616
C24   C     C_2   0.339917 0.715490 0.388452 0.388684
C25   C     C_2   0.687151 0.724434 0.635740 0.464535
C26   C     C_2   0.312860 0.275602 0.364263 0.464716
C27   C     C_R   0.560842 0.239743 0.547051 0.072749
C28   C     C_R   0.444927 0.847734 0.456156 -0.211026
C29   C     C_R   0.555111 0.152260 0.543799 -0.210881
C30   C     C_R   0.526985 0.893450 0.518717 0.288986
C31   C     C_R   0.472967 0.106548 0.481257 0.288897
C32   C     C_R   0.603073 0.849642 0.576461 -0.355018
H1    H     H_    0.034057 0.597432 0.504280 0.191049
H2    H     H_    0.481740 0.648460 0.251975 0.194826
H3    H     H_    0.618395 0.120624 0.588961 0.199503
H4    H     H_    0.381688 0.879364 0.410969 0.199414
H5    H     H_    0.666730 0.883543 0.625612 0.155724
H6    H     H_    0.333154 0.116473 0.374387 0.155729
H7    H     H_    0.708132 0.350488 0.606105 0.128876
H8    H     H_    0.291820 0.649535 0.393879 0.128749
H9    H     H_    0.673532 0.739552 0.696387 0.017203
H10   H     H_    0.326608 0.260548 0.303610 0.017375
H11   H     H_    0.965943 0.402568 0.495716 0.191088
H12   H     H_    0.554412 0.392117 0.252462 0.157691
H13   H     H_    0.448679 0.608211 0.747932 0.157468
H14   H     H_    0.564083 0.400747 0.110666 0.153935
H15   H     H_    0.443538 0.600120 0.889857 0.153881
H16   H     H_    0.516879 0.344056 0.892484 0.154288
H17   H     H_    0.489631 0.656624 0.107578 0.154173
H18   H     H_    0.520361 0.351722 0.747950 0.194842
N1    N     N_2   0.492659 0.465720 0.984581 -0.199768
N2    N     N_2   0.515806 0.535139 0.015704 -0.199821
N3    N     N_R   0.519180 0.718290 0.509780 -0.145335
N4    N     N_R   0.480820 0.281710 0.490220 -0.145390
N5    N     N_2   0.535366 0.982011 0.526851 -0.167789
N6    N     N_2   0.464568 0.017984 0.473117 -0.167774
O1    O     O_R   0.493140 0.422050 0.612640 -0.659943
O2    O     O_2   0.306702 0.753066 0.327733 -0.593994
O3    O     O_2   0.783135 0.681127 0.622380 -0.545330
O4    O     O_2   0.216797 0.318862 0.377624 -0.545420
O5    O     O_R   0.506860 0.577950 0.387360 -0.659886
O6    O     O_R   0.505450 0.562230 0.618920 -0.607442
O7    O     O_R   0.494550 0.437770 0.381080 -0.607559
O8    O     O_R   0.723530 0.446300 0.497600 -0.665541
O9    O     O_R   0.276470 0.553700 0.502400 -0.665466
O10   O     O_R   0.735850 0.586490 0.503880 -0.553148
O11   O     O_R   0.264150 0.413510 0.496120 -0.553085
O12   O     O_2   0.693958 0.246892 0.672091 -0.594075
Zn1   Zn    Zn3+2 0.491780 0.406400 0.495810 0.973567
Zn2   Zn    Zn3+2 0.508220 0.593600 0.504190 0.973643

loop_
_geom_bond_atom_site_label_1
_geom_bond_atom_site_label_2
_ccdc_geom_bond_type
O5    Zn2   S    
C2    C4    A    
C23   C24   S    
C8    H11   S    
C14   H15   S    
C6    O9    A    
C1    O1    A    
C31   N6    S    
C27   C29   A    
C3    N3    A    
C30   N5    S    
C2    H6    S    
C9    C20   A    
C4    C26   S    
C16   N1    S    
N5    N6    D    
C4    N4    A    
C1    O6    A    
C26   O4    D    
C28   C30   A    
C27   N4    A    
C5    C7    S    
C7    C8    D    
C29   C31   A    
C32   H5    S    
C30   C32   A    
C12   O5    A    
C7    H1    S    
C22   O12   D    
O10   Zn2   S    
N4    Zn1   S    
C10   C12   S    
C6    C8    S    
N3    Zn2   S    
C17   N2    S    
C24   O2    D    
C6    O11   A    
C17   C19   A    
C23   N3    A    
C18   C20   A    
C22   C27   S    
C9    C11   A    
C13   C15   A    
C3    C32   A    
C11   C14   A    
C14   C16   A    
C19   H17   S    
C11   H13   S    
C26   H10   S    
C19   C21   A    
C22   H7    S    
N1    N2    D    
C3    C25   S    
C28   H4    S    
C1    C9    S    
O6    Zn2   S    
C16   C18   A    
C25   H9    S    
C15   C17   A    
C12   O7    A    
C29   H3    S    
C24   H8    S    
C20   H18   S    
C21   H2    S    
C25   O3    D    
C15   H14   S    
O1    Zn1   S    
O9    Zn2   S    
C23   C28   A    
C10   C21   A    
O8    Zn1   S    
C13   H12   S    
C2    C31   A    
O7    Zn1   S    
C5    O8    A    
C5    O10   A    
O11   Zn1   S    
C10   C13   A    
C18   H16   S    
