data_mof_unit_63061.cif
_audit_creation_date              2013-03-05T16:32:40-0500
_audit_creation_method            fapswitch 2.2
_symmetry_space_group_name_H-M    P1
_symmetry_Int_Tables_number       1
_space_group_crystal_system       triclinic
_cell_length_a                    22.517962
_cell_length_b                    22.520051
_cell_length_c                    21.329715
_cell_angle_alpha                 89.999004
_cell_angle_beta                  58.143287
_cell_angle_gamma                 90.000026
_cell_volume                      9187.1492072

loop_
_atom_site_label
_atom_site_type_symbol
_atom_site_description
_atom_site_fract_x
_atom_site_fract_y
_atom_site_fract_z
_atom_type_partial_charge
Zn1   Zn    Zn3+2 0.580250 0.299470 0.438420 1.026866
Zn2   Zn    Zn3+2 0.419750 0.700530 0.561580 1.026421
Zn3   Zn    Zn3+2 0.419750 0.299470 0.561580 1.026725
Zn4   Zn    Zn3+2 0.580250 0.700530 0.438420 1.025687
Zn5   Zn    Zn3+2 0.080250 0.799470 0.438420 1.027598
Zn6   Zn    Zn3+2 0.919750 0.200530 0.561580 1.027012
Zn7   Zn    Zn3+2 0.919750 0.799470 0.561580 1.025853
Zn8   Zn    Zn3+2 0.080250 0.200530 0.438420 1.026819
Zn9   Zn    Zn3+2 0.518670 0.200550 0.561580 1.016754
Zn10  Zn    Zn3+2 0.481330 0.799450 0.438420 1.017862
Zn11  Zn    Zn3+2 0.481330 0.200550 0.438420 1.016464
Zn12  Zn    Zn3+2 0.518670 0.799450 0.561580 1.016920
Zn13  Zn    Zn3+2 0.018670 0.700550 0.561580 1.018109
Zn14  Zn    Zn3+2 0.981330 0.299450 0.438420 1.016082
Zn15  Zn    Zn3+2 0.981330 0.700550 0.438420 1.014822
Zn16  Zn    Zn3+2 0.018670 0.299450 0.561580 1.016535
O1    O     O_3   0.500000 0.250010 0.500000 -0.513704
O2    O     O_3   0.500000 0.749990 0.500000 -0.513811
O3    O     O_3   1.000000 0.750010 0.500000 -0.513617
O4    O     O_3   1.000000 0.249990 0.500000 -0.513638
O5    O     O_R   0.383200 0.284620 0.664410 -0.614796
O6    O     O_R   0.616800 0.715380 0.335590 -0.616214
O7    O     O_R   0.616800 0.284620 0.335590 -0.614573
O8    O     O_R   0.383200 0.715380 0.664410 -0.615708
O9    O     O_R   0.883200 0.784620 0.664410 -0.616068
O10   O     O_R   0.116800 0.215380 0.335590 -0.614574
O11   O     O_R   0.116800 0.784620 0.335590 -0.614128
O12   O     O_R   0.883200 0.215380 0.664410 -0.614506
O13   O     O_R   0.610480 0.215400 0.543100 -0.625973
O14   O     O_R   0.389520 0.784600 0.456900 -0.625742
O15   O     O_R   0.389520 0.215400 0.456900 -0.626131
O16   O     O_R   0.610480 0.784600 0.543100 -0.625985
O17   O     O_R   0.110480 0.715400 0.543100 -0.625959
O18   O     O_R   0.889520 0.284600 0.456900 -0.626228
O19   O     O_R   0.889520 0.715400 0.456900 -0.626682
O20   O     O_R   0.110480 0.284600 0.543100 -0.626140
O21   O     O_R   0.513060 0.117980 0.543100 -0.629944
O22   O     O_R   0.486940 0.882020 0.456900 -0.629762
O23   O     O_R   0.486940 0.117980 0.456900 -0.629970
O24   O     O_R   0.513060 0.882020 0.543100 -0.629907
O25   O     O_R   0.013060 0.617980 0.543100 -0.629400
O26   O     O_R   0.986940 0.382020 0.456900 -0.630397
O27   O     O_R   0.986940 0.617980 0.456900 -0.630642
O28   O     O_R   0.013060 0.382020 0.543100 -0.629766
O29   O     O_R   0.443850 0.382040 0.543100 -0.626251
O30   O     O_R   0.556150 0.617960 0.456900 -0.626269
O31   O     O_R   0.556150 0.382040 0.456900 -0.626399
O32   O     O_R   0.443850 0.617960 0.543100 -0.626280
O33   O     O_R   0.943850 0.882040 0.543100 -0.626231
O34   O     O_R   0.056150 0.117960 0.456900 -0.626281
O35   O     O_R   0.056150 0.882040 0.456900 -0.626496
O36   O     O_R   0.943850 0.117960 0.543100 -0.626344
O37   O     O_R   0.653580 0.284630 0.456900 -0.626445
O38   O     O_R   0.346420 0.715370 0.543100 -0.626457
O39   O     O_R   0.346420 0.284630 0.543100 -0.626448
O40   O     O_R   0.653580 0.715370 0.456900 -0.626869
O41   O     O_R   0.153580 0.784630 0.456900 -0.626031
O42   O     O_R   0.846420 0.215370 0.543100 -0.626238
O43   O     O_R   0.846420 0.784630 0.543100 -0.626444
O44   O     O_R   0.153580 0.215370 0.456900 -0.626423
O45   O     O_R   0.452420 0.215390 0.664410 -0.625090
O46   O     O_R   0.547580 0.784610 0.335590 -0.622921
O47   O     O_R   0.547580 0.215390 0.335590 -0.625575
O48   O     O_R   0.452420 0.784610 0.664410 -0.623901
O49   O     O_R   0.952420 0.715390 0.664410 -0.623160
O50   O     O_R   0.047580 0.284610 0.335590 -0.625512
O51   O     O_R   0.047580 0.715390 0.335590 -0.626992
O52   O     O_R   0.952420 0.284610 0.664410 -0.625643
C1    C     C_R   0.400276 0.250009 0.699481 0.822408
C2    C     C_R   0.599719 0.749990 0.300519 0.821852
C3    C     C_R   0.599724 0.250009 0.300519 0.822878
C4    C     C_R   0.400275 0.749990 0.699481 0.822155
C5    C     C_R   0.900281 0.750010 0.699481 0.821619
C6    C     C_R   0.099724 0.249992 0.300519 0.822542
C7    C     C_R   0.099725 0.750008 0.300519 0.823772
C8    C     C_R   0.900276 0.249991 0.699481 0.822795
C9    C     C_R   0.660115 0.250014 0.500002 0.845764
C10   C     C_R   0.339885 0.749986 0.499998 0.845662
C11   C     C_R   0.339886 0.250014 0.499998 0.845814
C12   C     C_R   0.660114 0.749986 0.500002 0.845418
C13   C     C_R   0.160115 0.750014 0.500002 0.846048
C14   C     C_R   0.839885 0.249986 0.499998 0.845820
C15   C     C_R   0.839885 0.750014 0.499998 0.845541
C16   C     C_R   0.160114 0.249986 0.500002 0.845828
C17   C     C_R   0.500000 0.089889 0.500000 0.841071
C18   C     C_R   0.500000 0.910111 0.500000 0.840444
C19   C     C_R   0.000000 0.589889 0.500000 0.841247
C20   C     C_R   1.000000 0.410111 0.500000 0.841314
C21   C     C_R   0.500000 0.410126 0.500000 0.844966
C22   C     C_R   0.500000 0.589874 0.500000 0.845412
C23   C     C_R   0.000000 0.910126 0.500000 0.844947
C24   C     C_R   1.000000 0.089874 0.500000 0.844787
C25   C     C_1   0.500000 0.473370 0.500000 -0.117077
C26   C     C_1   0.499999 0.526630 0.500000 -0.117265
C27   C     C_1   0.000000 0.973370 0.500000 -0.117251
C28   C     C_1   1.000000 0.026630 0.500000 -0.117140
C29   C     C_3   0.252084 0.804276 0.974299 -0.097509
C30   C     C_3   0.753954 0.197285 0.025716 -0.098471
C31   C     C_3   0.751329 0.803480 0.025726 -0.097178
C32   C     C_3   0.243352 0.198233 0.974280 -0.098011
C33   C     C_3   0.746046 0.302714 0.974284 -0.098474
C34   C     C_3   0.247737 0.695685 0.025700 -0.098562
C35   C     C_3   0.256650 0.301783 0.025719 -0.097887
C36   C     C_3   0.748686 0.696527 0.974274 -0.097225
C37   C     C_3   0.683336 0.262094 0.024042 0.234079
C38   C     C_3   0.314853 0.731716 0.975971 0.234236
C39   C     C_3   0.317218 0.259273 0.975951 0.233433
C40   C     C_3   0.683948 0.735219 0.024007 0.190057
C41   C     C_3   0.184937 0.768247 0.024081 0.193225
C42   C     C_3   0.816664 0.237906 0.975958 0.234216
C43   C     C_3   0.816067 0.764788 0.975992 0.190521
C44   C     C_3   0.182785 0.240744 0.024048 0.233540
C45   C     C_1   0.639024 0.250189 0.221658 -0.060847
C46   C     C_1   0.360963 0.749814 0.778342 -0.060840
C47   C     C_1   0.360983 0.250193 0.778342 -0.060955
C48   C     C_1   0.638985 0.749801 0.221658 -0.060869
C49   C     C_1   0.139029 0.750186 0.221658 -0.061141
C50   C     C_1   0.860976 0.249810 0.778342 -0.060842
C51   C     C_1   0.861021 0.750203 0.778342 -0.060927
C52   C     C_1   0.139018 0.249812 0.221657 -0.061221
C53   C     C_3   0.775407 0.291550 0.024207 0.189064
C54   C     C_3   0.220037 0.713012 0.975763 0.189991
C55   C     C_3   0.226779 0.293438 0.975803 0.189770
C56   C     C_3   0.777341 0.710393 0.024232 0.232605
C57   C     C_3   0.279807 0.786945 0.024183 0.229804
C58   C     C_3   0.724593 0.208450 0.975793 0.188900
C59   C     C_3   0.722674 0.789614 0.975768 0.232330
C60   C     C_3   0.273223 0.206576 0.024196 0.189359
C61   C     C_3   0.712348 0.250897 0.074696 -0.122236
C62   C     C_3   0.287556 0.749089 0.925303 -0.122720
C63   C     C_3   0.287694 0.250896 0.925303 -0.122324
C64   C     C_3   0.712238 0.749123 0.074698 -0.122832
C65   C     C_3   0.212345 0.750889 0.074696 -0.122565
C66   C     C_3   0.787652 0.249103 0.925304 -0.122254
C67   C     C_3   0.787777 0.750883 0.925302 -0.122819
C68   C     C_3   0.212309 0.249119 0.074696 -0.122442
C69   C     C_1   0.672096 0.250479 0.155331 0.171137
C70   C     C_1   0.327864 0.749520 0.844669 0.171687
C71   C     C_1   0.327923 0.250483 0.844669 0.171108
C72   C     C_1   0.672013 0.749520 0.155331 0.171046
C73   C     C_1   0.172104 0.750474 0.155330 0.171250
C74   C     C_1   0.827904 0.249520 0.844669 0.171136
C75   C     C_1   0.827997 0.750486 0.844669 0.171051
C76   C     C_1   0.172079 0.249526 0.155330 0.170760
C77   C     C_1   0.276633 0.250005 0.500000 -0.115009
C78   C     C_1   0.723367 0.749995 0.500000 -0.115632
C79   C     C_1   0.723367 0.250005 0.500000 -0.114921
C80   C     C_1   0.276633 0.749995 0.500000 -0.114492
C81   C     C_1   0.776633 0.750005 0.500000 -0.115793
C82   C     C_1   0.223367 0.249995 0.500000 -0.114997
C83   C     C_1   0.223367 0.750005 0.500000 -0.114391
C84   C     C_1   0.776633 0.249995 0.500000 -0.114972
C85   C     C_1   0.500000 0.026633 0.500000 -0.125036
C86   C     C_1   0.500000 0.973367 0.500000 -0.124712
C87   C     C_1   0.000000 0.526633 0.500000 -0.125145
C88   C     C_1   1.000000 0.473367 0.500000 -0.125260
N1    N     N_R   0.611278 0.275717 0.047378 0.255896
O53   O     O_R   0.594679 0.284117 0.998181 -0.262370
O54   O     O_R   0.563299 0.279458 0.117110 -0.344500
N2    N     N_R   0.384956 0.711323 0.952698 0.254506
O55   O     O_R   0.400282 0.698311 0.001940 -0.270535
O56   O     O_R   0.432460 0.706092 0.882981 -0.343747
N3    N     N_R   0.389899 0.269771 0.952609 0.256238
O57   O     O_R   0.406879 0.276048 0.001803 -0.259380
O58   O     O_R   0.438050 0.272838 0.882876 -0.343142
N4    N     N_R   0.612590 0.718804 0.047317 0.249235
O59   O     O_R   0.596255 0.709075 0.998139 -0.293546
O60   O     O_R   0.564886 0.714115 0.117037 -0.334710
N5    N     N_R   0.114748 0.788538 0.047528 0.249605
O61   O     O_R   0.098990 0.800853 0.998449 -0.295007
O62   O     O_R   0.067471 0.794057 0.117278 -0.343137
N6    N     N_R   0.888723 0.224283 0.952622 0.255743
O63   O     O_R   0.905321 0.215883 0.001819 -0.263017
O64   O     O_R   0.936701 0.220542 0.882890 -0.345036
N7    N     N_R   0.887426 0.781202 0.952682 0.248905
O65   O     O_R   0.903762 0.790929 0.001859 -0.294608
O66   O     O_R   0.935129 0.785891 0.882961 -0.336478
N8    N     N_R   0.110103 0.230247 0.047391 0.255938
O67   O     O_R   0.093122 0.223971 0.998197 -0.260221
O68   O     O_R   0.061953 0.227181 0.117123 -0.343781
N9    N     N_3   0.254565 0.864068 0.947044 -0.367157
H1    H     H_    0.223063 0.890917 0.992856 0.233711
H2    H     H_    0.231049 0.862593 0.915960 0.227850
N10   N     N_3   0.759369 0.139530 0.052990 -0.369975
H3    H     H_    0.787642 0.111843 0.007188 0.233600
H4    H     H_    0.708889 0.122020 0.084104 0.231859
N11   N     N_3   0.752664 0.862428 0.052984 -0.367712
H5    H     H_    0.786512 0.888482 0.007242 0.233170
H6    H     H_    0.775265 0.858330 0.084789 0.227575
N12   N     N_3   0.234983 0.141540 0.947001 -0.369679
H7    H     H_    0.205270 0.114170 0.992802 0.233128
H8    H     H_    0.284511 0.122244 0.915904 0.230579
N13   N     N_3   0.740631 0.360470 0.947010 -0.369653
H9    H     H_    0.712358 0.388157 0.992812 0.233831
H10   H     H_    0.791111 0.377980 0.915896 0.231839
N14   N     N_3   0.246398 0.636119 0.052959 -0.370938
H11   H     H_    0.271252 0.607969 0.007169 0.234236
H12   H     H_    0.194120 0.622809 0.084271 0.232874
N15   N     N_3   0.265011 0.358480 0.052995 -0.368859
H13   H     H_    0.294385 0.385965 0.007225 0.233214
H14   H     H_    0.215425 0.377617 0.084437 0.228881
N16   N     N_3   0.747351 0.637579 0.947016 -0.367561
H15   H     H_    0.713493 0.611529 0.992757 0.233484
H16   H     H_    0.724764 0.641678 0.915198 0.227836
N17   N     N_R   0.185516 0.672049 0.952142 0.251527
O69   O     O_R   0.128381 0.645296 0.001105 -0.288411
O70   O     O_R   0.211174 0.662254 0.882357 -0.325643
N18   N     N_R   0.805018 0.337531 0.047749 0.249654
O71   O     O_R   0.858909 0.367786 0.998734 -0.293885
O72   O     O_R   0.778199 0.348388 0.117516 -0.323143
N19   N     N_R   0.809025 0.666379 0.047778 0.256647
O73   O     O_R   0.863836 0.637070 0.998720 -0.263178
O74   O     O_R   0.782970 0.656164 0.117552 -0.332603
N20   N     N_R   0.199591 0.341501 0.952276 0.248652
O75   O     O_R   0.147345 0.373262 0.001305 -0.299813
O76   O     O_R   0.226958 0.352758 0.882511 -0.324817
N21   N     N_R   0.694982 0.162469 0.952251 0.249704
O77   O     O_R   0.641091 0.132213 0.001266 -0.293449
O78   O     O_R   0.721801 0.151612 0.882484 -0.322809
N22   N     N_R   0.314377 0.828000 0.047633 0.256220
O79   O     O_R   0.371025 0.855246 0.998509 -0.263646
O80   O     O_R   0.289061 0.837629 0.117387 -0.326532
N23   N     N_R   0.300412 0.158517 0.047727 0.249033
O81   O     O_R   0.352685 0.126777 0.998703 -0.296225
O82   O     O_R   0.273030 0.147252 0.117492 -0.324096
N24   N     N_R   0.690990 0.833628 0.952222 0.256672
O83   O     O_R   0.636180 0.862938 0.001280 -0.262786
O84   O     O_R   0.717045 0.843844 0.882448 -0.332088

loop_
_geom_bond_atom_site_label_1
_geom_bond_atom_site_label_2
_geom_bond_distance
_ccdc_geom_bond_type
N1    O53   1.300261 A    
C30   C42   1.541176 S    
C36   C67   1.547178 S    
Zn2   O2    1.930235 S    
Zn8   O10   1.922073 S    
N5    O61   1.300293 A    
Zn6   O42   1.918519 S    
O37   C9    1.271748 A    
C27   C28   1.199416 T    
C52   C76   1.201660 T    
C80   C83   1.199432 T    
C35   C55   1.541842 S    
C31   N11   1.455911 S    
N8    O67   1.300281 A    
C32   C63   1.547163 S    
O49   C5    1.272318 A    
C11   C77   1.424297 S    
Zn13  O49   1.921977 S    
N17   O69   1.300237 A    
Zn15  O3    1.930179 S    
C13   C83   1.424294 S    
C38   C57   1.539669 S    
C56   C64   1.550108 S    
O39   C11   1.271764 A    
Zn8   O4    1.930263 S    
N16   H16   1.045068 S    
C37   C58   1.540276 S    
O22   C18   1.271696 A    
C43   N7    1.456874 S    
N23   O82   1.300122 A    
C20   C88   1.424515 S    
Zn10  O2    1.930153 S    
O21   C17   1.271696 A    
N3    O58   1.300118 A    
O43   C15   1.271764 A    
C39   C60   1.540303 S    
Zn11  O47   1.921960 S    
C60   C68   1.549185 S    
C42   C53   1.540277 S    
Zn12  O48   1.921964 S    
N20   O76   1.300123 A    
C41   C54   1.540888 S    
O16   C12   1.271751 A    
O45   C1    1.272365 A    
O15   C11   1.271748 A    
O50   C6    1.272361 A    
C4    C46   1.428714 S    
C24   C28   1.424256 S    
C51   C75   1.201656 T    
N10   H3    1.044973 S    
C3    C45   1.428717 S    
O24   C18   1.271692 A    
Zn15  O19   1.918606 S    
Zn1   O37   1.918518 S    
O10   C6    1.272251 A    
C40   N4    1.456875 S    
O35   C23   1.271565 A    
Zn5   O11   1.922086 S    
Zn3   O39   1.918521 S    
Zn6   O12   1.922089 S    
N3    O57   1.300282 A    
C41   N5    1.456911 S    
N18   O71   1.300239 A    
N13   H10   1.044849 S    
C7    C49   1.428722 S    
C59   N24   1.456701 S    
N12   H8    1.044853 S    
C34   C38   1.541214 S    
C31   C43   1.541845 S    
Zn16  O52   1.921964 S    
O29   C21   1.271562 A    
Zn16  O28   1.918731 S    
O9    C5    1.272287 A    
C77   C82   1.199438 T    
N13   H9    1.044975 S    
C58   N21   1.456875 S    
C10   C80   1.424294 S    
Zn14  O26   1.918744 S    
Zn4   O2    1.930263 S    
C12   C78   1.424298 S    
Zn4   O6    1.922073 S    
Zn11  O15   1.918606 S    
N15   H13   1.045024 S    
N1    O54   1.300118 A    
O32   C22   1.271566 A    
Zn12  O16   1.918607 S    
N4    O60   1.300113 A    
O31   C21   1.271565 A    
C54   N17   1.456873 S    
Zn10  O46   1.921974 S    
O33   C23   1.271562 A    
O11   C7    1.272243 A    
Zn16  O20   1.918607 S    
C60   N23   1.456876 S    
Zn7   O43   1.918521 S    
N22   O79   1.300242 A    
Zn2   O32   1.918795 S    
C33   N13   1.455971 S    
C22   C26   1.424256 S    
N9    H2    1.044867 S    
C33   C37   1.541173 S    
O25   C19   1.271695 A    
C37   N1    1.456777 S    
C40   C64   1.549174 S    
N16   H15   1.045032 S    
C44   C68   1.550086 S    
C41   C65   1.550034 S    
O7    C3    1.272247 A    
C15   C81   1.424296 S    
Zn7   O33   1.918782 S    
N23   O81   1.300241 A    
C29   C57   1.541215 S    
Zn2   O38   1.918519 S    
Zn13  O3    1.930148 S    
N20   O75   1.300240 A    
Zn1   O31   1.918796 S    
C37   C61   1.550092 S    
C2    C48   1.428712 S    
N21   O77   1.300238 A    
N9    H1    1.044955 S    
Zn5   O3    1.930236 S    
C54   C62   1.550074 S    
Zn3   O29   1.918782 S    
C21   C25   1.424256 S    
C8    C50   1.428717 S    
O5    C1    1.272242 A    
N2    O56   1.300123 A    
Zn12  O24   1.918731 S    
C49   C73   1.201658 T    
C35   C68   1.547180 S    
N12   H7    1.044972 S    
Zn13  O17   1.918604 S    
Zn14  O4    1.930153 S    
C66   C74   1.460865 S    
C78   C81   1.199437 T    
C29   C41   1.541815 S    
Zn10  O14   1.918604 S    
N8    O68   1.300119 A    
N19   O73   1.300251 A    
O40   C12   1.271762 A    
Zn16  O4    1.930174 S    
C47   C71   1.201657 T    
Zn15  O51   1.921960 S    
Zn1   O7    1.922086 S    
Zn9   O21   1.918744 S    
Zn14  O50   1.921974 S    
O13   C9    1.271732 A    
C25   C26   1.199416 T    
C17   C85   1.424515 S    
O52   C8    1.272362 A    
Zn9   O1    1.930148 S    
C42   N6    1.456778 S    
Zn11  O23   1.918731 S    
Zn4   O40   1.918520 S    
O47   C3    1.272362 A    
C44   C55   1.540269 S    
C36   C56   1.541151 S    
C31   C64   1.547178 S    
C46   C70   1.201658 T    
O34   C24   1.271560 A    
N19   O74   1.300131 A    
C39   N3    1.456772 S    
C32   C44   1.541179 S    
N7    O66   1.300115 A    
Zn7   O3    1.930262 S    
Zn2   O8    1.922089 S    
N4    O59   1.300337 A    
Zn9   O45   1.921977 S    
Zn3   O5    1.922076 S    
O51   C7    1.272367 A    
O23   C17   1.271692 A    
C62   C70   1.460861 S    
Zn8   O34   1.918782 S    
C36   C40   1.541841 S    
C6    C52   1.428722 S    
N6    O63   1.300257 A    
O8    C4    1.272230 A    
C44   N8    1.456776 S    
N5    O62   1.300112 A    
C57   C65   1.549242 S    
C38   C62   1.549213 S    
C42   C66   1.550091 S    
C9    C79   1.424293 S    
O12   C8    1.272246 A    
C1    C47   1.428714 S    
O19   C15   1.271750 A    
C55   C63   1.549191 S    
C43   C56   1.540293 S    
C32   C60   1.541847 S    
C65   C73   1.460863 S    
Zn11  O1    1.930179 S    
C32   N12   1.455980 S    
C53   C61   1.549191 S    
N14   H11   1.045008 S    
C50   C74   1.201660 T    
C34   N14   1.455975 S    
Zn14  O18   1.918604 S    
C29   C62   1.547146 S    
C31   C59   1.541154 S    
O46   C2    1.272321 A    
C29   N9    1.455965 S    
Zn13  O25   1.918744 S    
O30   C22   1.271560 A    
C56   N19   1.456700 S    
Zn9   O13   1.918604 S    
C48   C72   1.201658 T    
C64   C72   1.460853 S    
Zn6   O4    1.930235 S    
N24   O84   1.300132 A    
Zn7   O9    1.922076 S    
Zn5   O41   1.918518 S    
N22   O80   1.300128 A    
Zn10  O22   1.918744 S    
N18   O72   1.300123 A    
O27   C19   1.271693 A    
N2    O55   1.300288 A    
C39   C63   1.550086 S    
O42   C14   1.271748 A    
C79   C84   1.199434 T    
C18   C86   1.424517 S    
C34   C65   1.547159 S    
Zn15  O27   1.918731 S    
N11   H5    1.045031 S    
C68   C76   1.460868 S    
N7    O65   1.300337 A    
C33   C66   1.547155 S    
Zn8   O44   1.918520 S    
O26   C20   1.271697 A    
O44   C16   1.271764 A    
C43   C67   1.549177 S    
Zn4   O30   1.918782 S    
O20   C16   1.271748 A    
C38   N2    1.456744 S    
C35   N15   1.455971 S    
C67   C75   1.460853 S    
N6    O64   1.300117 A    
N10   H4    1.044846 S    
Zn3   O1    1.930262 S    
C45   C69   1.201660 T    
O48   C4    1.272374 A    
C40   C59   1.540288 S    
C30   N10   1.455971 S    
N21   O78   1.300123 A    
C59   C67   1.550106 S    
O41   C13   1.271748 A    
C33   C53   1.541859 S    
N11   H6    1.045068 S    
N14   H12   1.044875 S    
C63   C71   1.460864 S    
C23   C27   1.424256 S    
C5    C51   1.428712 S    
O14   C10   1.271734 A    
C57   N22   1.456706 S    
C30   C58   1.541859 S    
C61   C69   1.460865 S    
Zn1   O1    1.930236 S    
C58   C66   1.549191 S    
C30   C61   1.547156 S    
N24   O83   1.300252 A    
O28   C20   1.271691 A    
C55   N20   1.456870 S    
Zn12  O2    1.930174 S    
C87   C88   1.199567 T    
N15   H14   1.044895 S    
Zn5   O35   1.918796 S    
C35   C39   1.541177 S    
O18   C14   1.271732 A    
C53   N18   1.456874 S    
Zn6   O36   1.918795 S    
C85   C86   1.199567 T    
C34   C54   1.541802 S    
N17   O70   1.300117 A    
O17   C13   1.271732 A    
O6    C2    1.272286 A    
O36   C24   1.271566 A    
C14   C84   1.424293 S    
C19   C87   1.424517 S    
C36   N16   1.455912 S    
O38   C10   1.271746 A    
C16   C82   1.424297 S    
