data_mof_unit_23414.cif
_audit_creation_date              2012-12-10T20:53:08-0500
_audit_creation_method            fapswitch 2.2
_symmetry_space_group_name_H-M    P1
_symmetry_Int_Tables_number       1
_space_group_crystal_system       triclinic
_cell_length_a                    18.394275
_cell_length_b                    18.404322
_cell_length_c                    18.415643
_cell_angle_alpha                 59.546383
_cell_angle_beta                  59.412706
_cell_angle_gamma                 59.589245
_cell_volume                      4359.80147177

loop_
_atom_site_label
_atom_site_type_symbol
_atom_type_description
_atom_site_fract_x
_atom_site_fract_y
_atom_site_fract_z
_atom_type_partial_charge
C1    C     C_R   0.390856 0.114244 0.106057 0.484850
C2    C     C_R   0.368989 0.816271 0.794965 -0.047365
C3    C     C_R   0.036586 0.518104 0.906201 0.003864
C4    C     C_R   0.460924 0.964558 0.094002 0.008278
C5    C     C_R   0.539097 0.035445 0.905992 0.008272
C6    C     C_R   0.948939 0.942996 0.551991 0.017971
C7    C     C_R   0.051063 0.057002 0.448006 0.017968
C8    C     C_R   0.942684 0.551512 0.949366 0.018263
C9    C     C_R   0.057315 0.448488 0.050635 0.018263
C10   C     C_R   0.548989 0.943256 0.948949 0.015325
C11   C     C_R   0.451014 0.056749 0.051046 0.015326
C12   C     C_3   0.050863 0.736296 0.598797 -0.376180
C13   C     C_R   0.182784 0.203873 0.632419 -0.048219
C14   C     C_3   0.949138 0.263699 0.401260 -0.376156
C15   C     C_3   0.736770 0.599263 0.053070 -0.382066
C16   C     C_3   0.263226 0.400754 0.946931 -0.382064
C17   C     C_3   0.519375 0.757435 0.044842 -0.365447
C18   C     C_3   0.480613 0.242575 0.955170 -0.365426
C19   C     C_3   0.227353 0.545064 0.328629 -0.403386
C20   C     C_3   0.772691 0.454856 0.671373 -0.403403
C21   C     C_3   0.539788 0.331020 0.229789 -0.402901
C22   C     C_3   0.460170 0.668986 0.770223 -0.402875
C23   C     C_3   0.330636 0.228241 0.542689 -0.403019
C24   C     C_R   0.817225 0.796146 0.367577 -0.048213
C25   C     C_3   0.669374 0.771774 0.457287 -0.403021
C26   C     C_R   0.167761 0.589326 0.273862 0.013504
C27   C     C_R   0.832272 0.410637 0.726141 0.013500
C28   C     C_R   0.586960 0.275660 0.170064 0.013728
C29   C     C_R   0.413032 0.724346 0.829941 0.013728
C30   C     C_R   0.274988 0.168928 0.588440 0.011851
C31   C     C_R   0.725018 0.831087 0.411550 0.011852
C32   C     C_R   0.079310 0.587757 0.311514 0.084622
C33   C     C_R   0.609144 0.885756 0.893943 0.484856
C34   C     C_R   0.920710 0.412239 0.688488 0.084641
C35   C     C_R   0.587568 0.312364 0.081089 0.085595
C36   C     C_R   0.412432 0.687637 0.918916 0.085603
C37   C     C_R   0.311697 0.080418 0.587746 0.083531
C38   C     C_R   0.688304 0.919595 0.412252 0.083530
C39   C     C_R   0.028241 0.629021 0.255994 -0.095550
C40   C     C_R   0.971771 0.371009 0.744008 -0.095537
C41   C     C_R   0.631659 0.256368 0.029842 -0.106303
C42   C     C_R   0.368354 0.743631 0.970162 -0.106256
C43   C     C_R   0.255360 0.029642 0.630342 -0.092415
C44   C     C_R   0.107907 0.112476 0.390284 0.484304
C45   C     C_R   0.744638 0.970373 0.369669 -0.092407
C46   C     C_R   0.063772 0.671881 0.164373 -0.013510
C47   C     C_R   0.936243 0.328155 0.835631 -0.013511
C48   C     C_R   0.675043 0.165199 0.065688 -0.019654
C49   C     C_R   0.324983 0.834803 0.934315 -0.019644
C50   C     C_R   0.163892 0.065471 0.673735 -0.011930
C51   C     C_R   0.836109 0.934547 0.326282 -0.011908
C52   C     C_R   0.150703 0.673808 0.127145 0.408704
C53   C     C_R   0.849325 0.326197 0.872861 0.408724
C54   C     C_R   0.674886 0.128897 0.153098 0.409126
C55   C     C_R   0.892094 0.887523 0.609716 0.484305
C56   C     C_R   0.325140 0.871111 0.846904 0.409125
C57   C     C_R   0.127626 0.152392 0.674941 0.406887
C58   C     C_R   0.872380 0.847628 0.325069 0.406899
C59   C     C_R   0.985075 0.591831 0.463576 -0.160116
C60   C     C_R   0.014934 0.408168 0.536424 -0.160120
C61   C     C_R   0.591671 0.464101 0.986002 -0.159899
C62   C     C_R   0.408329 0.535899 0.013996 -0.159911
C63   C     C_R   0.463586 0.985518 0.591810 -0.158330
C64   C     C_R   0.536414 0.014486 0.408190 -0.158330
C65   C     C_R   0.945355 0.552296 0.555244 -0.000627
C66   C     C_R   0.112756 0.390336 0.107577 0.481765
C67   C     C_R   0.054652 0.447703 0.444756 -0.000626
C68   C     C_R   0.552225 0.555339 0.945346 -0.000694
C69   C     C_R   0.447774 0.444661 0.054653 -0.000697
C70   C     C_R   0.555194 0.945291 0.552291 -0.001651
C71   C     C_R   0.444805 0.054713 0.447709 -0.001649
C72   C     C_R   0.960565 0.459139 0.592220 -0.027029
C73   C     C_R   0.039447 0.540859 0.407781 -0.027025
C74   C     C_R   0.459259 0.591805 0.959556 -0.027059
C75   C     C_R   0.540740 0.408195 0.040444 -0.027046
C76   C     C_R   0.592134 0.960030 0.459149 -0.027386
C77   C     C_R   0.887243 0.609664 0.892423 0.481766
C78   C     C_R   0.407866 0.039977 0.540851 -0.027383
C79   C     C_R   0.110425 0.390459 0.389768 0.498601
C80   C     C_R   0.889576 0.609541 0.610232 0.498599
C81   C     C_R   0.390522 0.389687 0.110415 0.497438
C82   C     C_R   0.609478 0.610313 0.889585 0.497441
C83   C     C_R   0.389809 0.110448 0.390499 0.502642
C84   C     C_R   0.610190 0.889553 0.609501 0.502641
C85   C     C_R   0.188798 0.926839 0.456382 -0.094068
C86   C     C_R   0.811202 0.073164 0.543536 -0.094085
C87   C     C_R   0.927774 0.465591 0.187361 -0.097787
C88   C     C_R   0.202434 0.632643 0.181518 -0.046309
C89   C     C_R   0.072225 0.534399 0.812639 -0.097805
C90   C     C_R   0.427665 0.928372 0.188766 -0.082968
C91   C     C_R   0.572394 0.071627 0.811223 -0.082951
C92   C     C_R   0.233024 0.835663 0.483569 -0.138595
C93   C     C_R   0.766974 0.164343 0.516310 -0.138620
C94   C     C_R   0.836610 0.495152 0.231776 -0.138329
C95   C     C_R   0.163389 0.504837 0.768223 -0.138331
C96   C     C_R   0.434621 0.839155 0.232340 -0.129020
C97   C     C_R   0.565475 0.160839 0.767643 -0.129018
C98   C     C_R   0.185693 0.777173 0.530692 -0.087797
C99   C     C_R   0.797604 0.367324 0.818488 -0.046293
C100  C     C_R   0.814306 0.222831 0.469226 -0.087792
C101  C     C_R   0.777758 0.539553 0.185561 -0.087043
C102  C     C_R   0.222241 0.460444 0.814438 -0.087038
C103  C     C_R   0.469901 0.784554 0.183385 -0.095333
C104  C     C_R   0.530176 0.215441 0.816603 -0.095332
C105  C     C_R   0.092318 0.808457 0.553023 0.026225
C106  C     C_R   0.907682 0.191542 0.446964 0.026234
C107  C     C_R   0.808831 0.557213 0.093055 0.026477
C108  C     C_R   0.191167 0.442792 0.906946 0.026476
C109  C     C_R   0.501971 0.817325 0.089389 0.008997
C110  C     C_R   0.631020 0.183740 0.205037 -0.047370
C111  C     C_R   0.498056 0.182678 0.910608 0.009004
C112  C     C_R   0.044022 0.903844 0.528816 0.023165
C113  C     C_R   0.955980 0.096155 0.471174 0.023155
C114  C     C_R   0.904077 0.531567 0.044179 0.024208
C115  C     C_R   0.095921 0.468434 0.955822 0.024206
C116  C     C_R   0.505112 0.907347 0.042882 0.017790
C117  C     C_R   0.494900 0.092658 0.957114 0.017782
C118  C     C_R   0.094382 0.962889 0.477740 0.003242
C119  C     C_R   0.905619 0.037111 0.522232 0.003242
C120  C     C_R   0.963412 0.481893 0.093800 0.003866
F1    F     F_    0.185038 0.715257 0.038043 -0.642530
F2    F     F_    0.814994 0.284753 0.961965 -0.642515
F3    F     F_    0.717015 0.040235 0.187640 -0.644016
F4    F     F_    0.283024 0.959777 0.812359 -0.644020
F5    F     F_    0.038698 0.186935 0.717081 -0.643682
F6    F     F_    0.961311 0.813087 0.282935 -0.643674
H1    H     H_    0.776860 0.293834 0.450721 0.104670
H2    H     H_    0.337430 0.564053 0.023542 0.186409
H3    H     H_    0.435019 0.975648 0.662791 0.187549
H4    H     H_    0.564981 0.024356 0.337209 0.187528
H5    H     H_    0.230353 0.968587 0.418535 0.116670
H6    H     H_    0.769647 0.031417 0.581358 0.116680
H7    H     H_    0.969837 0.430109 0.228013 0.116698
H8    H     H_    0.030162 0.569876 0.771988 0.116702
H9    H     H_    0.397112 0.968248 0.230856 0.117847
H10   H     H_    0.602960 0.031751 0.769131 0.117851
H11   H     H_    0.305044 0.810026 0.466916 0.097072
H12   H     H_    0.223138 0.706172 0.549175 0.104675
H13   H     H_    0.694954 0.189985 0.532906 0.097072
H14   H     H_    0.811221 0.482183 0.303132 0.098481
H15   H     H_    0.188779 0.517798 0.696868 0.098481
H16   H     H_    0.409476 0.812891 0.304767 0.102192
H17   H     H_    0.590664 0.187099 0.695209 0.102217
H18   H     H_    0.270045 0.633868 0.151752 0.105638
H19   H     H_    0.730003 0.366075 0.848255 0.105637
H20   H     H_    0.630844 0.154639 0.272985 0.105584
H21   H     H_    0.369163 0.845375 0.727016 0.105578
H22   H     H_    0.153709 0.271461 0.633218 0.106281
H23   H     H_    0.293317 0.440376 0.776824 0.106159
H24   H     H_    0.846305 0.728559 0.366773 0.106269
H25   H     H_    0.961184 0.626839 0.283634 0.099564
H26   H     H_    0.038818 0.373216 0.716366 0.099558
H27   H     H_    0.631244 0.283268 0.962354 0.094205
H28   H     H_    0.368772 0.716727 0.037652 0.094212
H29   H     H_    0.282270 0.962495 0.628964 0.101889
H30   H     H_    0.717723 0.037517 0.371054 0.101884
H31   H     H_    0.023913 0.703255 0.122164 0.147116
H32   H     H_    0.976095 0.296809 0.877841 0.147104
H33   H     H_    0.708503 0.122633 0.025655 0.146925
H34   H     H_    0.706682 0.559621 0.223174 0.106154
H35   H     H_    0.291535 0.877368 0.974348 0.146917
H36   H     H_    0.121068 0.025795 0.706207 0.148032
H37   H     H_    0.878930 0.974223 0.293820 0.148035
H38   H     H_    0.006260 0.734312 0.668288 0.148120
H39   H     H_    0.101985 0.668461 0.604356 0.089477
H40   H     H_    0.015373 0.746159 0.559015 0.158437
H41   H     H_    0.993772 0.265712 0.331763 0.148075
H42   H     H_    0.984598 0.253800 0.441094 0.158457
H43   H     H_    0.898016 0.331532 0.395713 0.089483
H44   H     H_    0.669055 0.604657 0.104937 0.098778
H45   H     H_    0.530802 0.283511 0.780260 0.102303
H46   H     H_    0.734678 0.668257 0.007041 0.147586
H47   H     H_    0.747467 0.557306 0.019345 0.156495
H48   H     H_    0.330942 0.395365 0.895064 0.098781
H49   H     H_    0.252521 0.442718 0.980653 0.156500
H50   H     H_    0.265324 0.331759 0.992962 0.147572
H51   H     H_    0.503387 0.695282 0.094080 0.092815
H52   H     H_    0.475070 0.792759 0.004520 0.168641
H53   H     H_    0.590506 0.735382 0.003712 0.130666
H54   H     H_    0.496588 0.304738 0.905942 0.092806
H55   H     H_    0.409474 0.264616 0.996293 0.130654
H56   H     H_    0.469300 0.716478 0.219725 0.102306
H57   H     H_    0.524908 0.207265 0.995503 0.168661
H58   H     H_    0.193939 0.513672 0.400825 0.134152
H59   H     H_    0.287908 0.492264 0.303548 0.120696
H60   H     H_    0.248490 0.595591 0.321977 0.129596
H61   H     H_    0.806098 0.486257 0.599178 0.134157
H62   H     H_    0.751593 0.404303 0.678025 0.129618
H63   H     H_    0.712115 0.507641 0.696454 0.120689
H64   H     H_    0.508095 0.402827 0.196076 0.133051
H65   H     H_    0.486641 0.305494 0.289574 0.121117
H66   H     H_    0.588674 0.325698 0.252094 0.129918
H67   H     H_    0.974854 0.662834 0.434991 0.186091
H68   H     H_    0.491843 0.597169 0.803953 0.133064
H69   H     H_    0.411251 0.674336 0.747926 0.129926
H70   H     H_    0.513336 0.694495 0.710418 0.121107
H71   H     H_    0.402639 0.194645 0.510845 0.134345
H72   H     H_    0.305502 0.288496 0.489912 0.120590
H73   H     H_    0.324930 0.249652 0.592462 0.130678
H74   H     H_    0.597369 0.805368 0.489127 0.134347
H75   H     H_    0.675089 0.750367 0.407505 0.130678
H76   H     H_    0.694504 0.711515 0.510064 0.120595
H77   H     H_    0.025154 0.337164 0.565010 0.186087
H78   H     H_    0.662570 0.435947 0.976455 0.186406
O1    O     O_3   0.250000 0.250000 0.250000 -0.438262
O2    O     O_R   0.865800 0.694910 0.573470 -0.553635
O3    O     O_R   0.305090 0.426530 0.134200 -0.552018
O4    O     O_R   0.694910 0.573470 0.865800 -0.552014
O5    O     O_R   0.426530 0.134200 0.305090 -0.547460
O6    O     O_R   0.573470 0.865800 0.694910 -0.547456
O7    O     O_R   0.134190 0.426530 0.134200 -0.553815
O8    O     O_R   0.865810 0.573470 0.865800 -0.553814
O9    O     O_R   0.426530 0.134200 0.134190 -0.558500
O10   O     O_R   0.573470 0.865800 0.865810 -0.558487
O11   O     O_R   0.134200 0.134190 0.426530 -0.553100
O12   O     O_3   0.750000 0.750000 0.750000 -0.438261
O13   O     O_R   0.865800 0.865810 0.573470 -0.553098
O14   O     O_R   0.426530 0.305080 0.134210 -0.546274
O15   O     O_R   0.573470 0.694920 0.865790 -0.546276
O16   O     O_R   0.305080 0.134210 0.426530 -0.539171
O17   O     O_R   0.694920 0.865790 0.573470 -0.539178
O18   O     O_R   0.134210 0.426530 0.305080 -0.539555
O19   O     O_R   0.865790 0.573470 0.694920 -0.539564
O20   O     O_R   0.305080 0.134200 0.134200 -0.530788
O21   O     O_R   0.694920 0.865800 0.865800 -0.530797
O22   O     O_R   0.134200 0.134200 0.305080 -0.532877
O23   O     O_R   0.865800 0.865800 0.694920 -0.532888
O24   O     O_R   0.134200 0.305080 0.134200 -0.537447
O25   O     O_R   0.865800 0.694920 0.865800 -0.537458
O26   O     O_R   0.134200 0.305090 0.426530 -0.553643
Zn1   Zn    Zn3+2 0.206620 0.206630 0.380140 0.914785
Zn2   Zn    Zn3+2 0.793380 0.793370 0.619860 0.914791
Zn3   Zn    Zn3+2 0.206630 0.380140 0.206620 0.908627
Zn4   Zn    Zn3+2 0.793370 0.619860 0.793380 0.908629
Zn5   Zn    Zn3+2 0.380140 0.206620 0.206630 0.908250
Zn6   Zn    Zn3+2 0.619860 0.793380 0.793370 0.908263
Zn7   Zn    Zn3+2 0.206620 0.206620 0.206620 0.925881
Zn8   Zn    Zn3+2 0.793380 0.793380 0.793380 0.925864

loop_
_geom_bond_atom_site_label_1
_geom_bond_atom_site_label_2
_ccdc_geom_bond_type
C17   H52   S    
C101  C107  A    
C40   C47   A    
C80   O2    A    
C54   F3    S    
O18   Zn3   S    
C26   C32   A    
C90   H9    S    
C22   C29   S    
C46   C52   A    
C50   H36   S    
C100  H1    S    
C94   H14   S    
C87   H7    S    
C36   C42   A    
C1    C11   S    
C6    C55   S    
C82   O4    A    
C85   H5    S    
C92   C98   A    
O9    Zn5   S    
C55   O13   A    
C38   C76   S    
C59   H67   S    
C48   C54   A    
C29   C36   A    
C27   C99   A    
C98   C105  A    
C14   C106  S    
C98   H12   S    
C1    O20   A    
O11   Zn1   S    
C56   F4    S    
C108  C115  A    
C42   H28   S    
O14   Zn5   S    
C25   H75   S    
C53   F2    S    
O13   Zn2   S    
C57   F5    S    
C12   C105  S    
C84   O6    A    
C21   H65   S    
C13   C57   A    
C45   C51   A    
C68   C74   A    
C103  H56   S    
C87   C94   A    
C23   H73   S    
O12   Zn4   S    
C40   H26   S    
C32   C39   A    
C55   O23   A    
C19   C26   S    
C9    C66   S    
C97   H17   S    
C38   C45   A    
C109  C116  A    
C113  C119  A    
C61   C75   A    
C82   O15   A    
C30   C37   A    
C101  H34   S    
C62   C74   A    
C94   C101  A    
C51   H37   S    
C86   C119  A    
C67   C73   A    
O6    Zn6   S    
C70   C84   S    
O20   Zn7   S    
C59   C73   A    
C41   H27   S    
C77   O8    A    
C95   C102  A    
C8    C114  A    
C47   C53   A    
C17   H53   S    
C103  C109  A    
C99   H19   S    
C15   C107  S    
C64   C71   A    
C65   C80   S    
O21   Zn8   S    
C7    C118  A    
C22   H70   S    
O26   Zn1   S    
C6    C112  A    
C14   H43   S    
C43   H29   S    
C92   H11   S    
O15   Zn6   S    
C5    C10   A    
C85   C92   A    
C4    C116  A    
C71   C83   S    
C27   C34   A    
C48   H33   S    
C91   H10   S    
C106  C113  A    
O2    Zn2   S    
C9    C115  A    
C23   C30   S    
C13   C30   A    
O1    Zn5   S    
C44   O11   A    
C67   C79   S    
C18   C111  S    
C60   C67   A    
C3    C8    A    
C12   H39   S    
C45   H30   S    
C15   H47   S    
C21   H66   S    
C102  H23   S    
C18   H55   S    
C28   C110  A    
C2    H21   S    
C47   H32   S    
O23   Zn8   S    
C96   H16   S    
C12   H40   S    
C53   C99   A    
O7    Zn3   S    
C15   H44   S    
C5    C117  A    
C54   C110  A    
C89   C95   A    
O1    Zn7   S    
O5    Zn5   S    
C79   O26   A    
C93   H13   S    
C86   C93   A    
C14   H41   S    
C12   H38   S    
C52   F1    S    
C60   H77   S    
C23   H72   S    
C63   C70   A    
C52   C88   A    
O19   Zn4   S    
C35   C75   S    
O22   Zn7   S    
C64   C76   A    
C43   C50   A    
C51   C58   A    
C5    C91   A    
C7    C44   S    
C91   C97   A    
C4    C11   A    
C102  C108  A    
C93   C100  A    
C83   O5    A    
C35   C41   A    
C24   H24   S    
C2    C56   A    
C104  H45   S    
C16   H49   S    
C24   C58   A    
C21   C28   S    
C64   H4    S    
C95   H15   S    
C39   C46   A    
C1    O9    A    
C8    C77   S    
O12   Zn6   S    
C34   C40   A    
C37   C43   A    
O1    Zn1   S    
C84   O17   A    
C70   C76   A    
C14   H42   S    
C11   C117  A    
C34   C72   S    
C6    C119  A    
C20   H63   S    
C10   C116  A    
O3    Zn3   S    
C79   O18   A    
C107  C114  A    
C16   H48   S    
C20   H62   S    
C28   C35   A    
C36   C74   S    
C89   H8    S    
O16   Zn1   S    
C25   H76   S    
C50   C57   A    
C49   H35   S    
C25   C31   S    
C105  C112  A    
O10   Zn6   S    
C81   O3    A    
C17   C109  S    
C19   H58   S    
C104  C111  A    
O8    Zn4   S    
C33   O10   A    
C4    C90   A    
C90   C96   A    
C20   C27   S    
C62   H2    S    
C100  C106  A    
C65   C72   A    
C37   C78   S    
C23   H71   S    
C77   O25   A    
C31   C38   A    
C3    C89   A    
C111  C117  A    
C68   C82   S    
C7    C113  A    
O1    Zn3   S    
C66   O7    A    
C24   C31   A    
O12   Zn8   S    
O24   Zn7   S    
C61   H78   S    
C49   C56   A    
C3    C115  A    
C59   C65   A    
C20   H61   S    
C112  C118  A    
C83   O16   A    
C46   H31   S    
C61   C68   A    
C86   H6    S    
C21   H64   S    
C18   H57   S    
C19   H60   S    
C81   O14   A    
O17   Zn2   S    
O12   Zn2   S    
C41   C48   A    
C88   H18   S    
C15   H46   S    
C69   C75   A    
C10   C33   S    
C63   H3    S    
C33   O21   A    
C85   C118  A    
C22   H69   S    
C39   H25   S    
C114  C120  A    
C97   C104  A    
C69   C81   S    
C16   H50   S    
C16   C108  S    
C42   C49   A    
C18   H54   S    
C87   C120  A    
C2    C29   A    
C62   C69   A    
C26   C88   A    
C96   C103  A    
C66   O24   A    
C25   H74   S    
C9    C120  A    
C60   C72   A    
C22   H68   S    
C17   H51   S    
C13   H22   S    
C58   F6    S    
O25   Zn8   S    
C110  H20   S    
O4    Zn4   S    
C44   O22   A    
C32   C73   S    
C71   C78   A    
C19   H59   S    
C80   O19   A    
C63   C78   A    
