data_mof_unit_46587.cif
_audit_creation_date              2012-10-26T20:21:18-0400
_audit_creation_method            fapswitch 2.2
_symmetry_space_group_name_H-M    P1
_symmetry_Int_Tables_number       1
_space_group_crystal_system       triclinic
_cell_length_a                    9.605252
_cell_length_b                    10.8011
_cell_length_c                    15.662193
_cell_angle_alpha                 87.699604
_cell_angle_beta                  73.283388
_cell_angle_gamma                 91.446496
_cell_volume                      1553.83633052

loop_
_atom_site_label
_atom_site_type_symbol
_atom_type_description
_atom_site_fract_x
_atom_site_fract_y
_atom_site_fract_z
_atom_type_partial_charge
C1    C     C_R   0.001121 0.262928 0.495601 0.540396
C2    C     C_R   0.114992 0.067061 0.433017 -0.012658
C3    C     C_R   0.000504 0.871118 0.502690 0.014401
C4    C     C_R   0.001686 0.128971 0.492731 0.017623
C5    C     C_R   0.541785 0.419205 0.556587 0.114090
C6    C     C_R   0.457048 0.583076 0.444722 0.109322
C7    C     C_R   0.393916 0.423259 0.556976 0.018493
C8    C     C_R   0.604665 0.581068 0.445877 0.014335
C9    C     C_R   0.917353 0.500157 0.671721 0.536878
C10   C     C_R   0.082493 0.496710 0.328510 0.536111
C11   C     C_R   0.871313 0.499190 0.769560 -0.006150
C12   C     C_R   0.000294 0.737270 0.501624 0.540662
C13   C     C_R   0.128433 0.478361 0.232357 -0.002968
C14   C     C_R   0.925827 0.519882 0.909871 -0.144734
C15   C     C_R   0.079676 0.405331 0.099393 -0.149376
C16   C     C_R   0.972485 0.517957 0.817229 -0.140872
C17   C     C_R   0.030115 0.434059 0.188742 -0.145182
C18   C     C_R   0.723907 0.479805 0.815531 -0.144226
C19   C     C_R   0.275753 0.494086 0.185863 -0.150079
C20   C     C_R   0.674871 0.475688 0.909180 0.033703
C21   C     C_R   0.329166 0.460838 0.096937 0.027102
C22   C     C_R   0.778096 0.499726 0.956107 0.050195
C23   C     C_R   0.586917 0.487167 0.095233 -0.146833
C24   C     C_R   0.227898 0.420003 0.052874 0.048954
C25   C     C_R   0.525744 0.452646 0.957208 0.033446
C26   C     C_R   0.480098 0.468284 0.050631 0.029530
C27   C     C_3   0.760664 0.864319 0.629826 -0.233661
C28   C     C_3   0.629596 0.842973 0.593713 -0.278363
C29   C     C_3   0.514680 0.755037 0.656229 -0.442659
C30   C     C_3   0.236785 0.132113 0.359407 -0.257126
C31   C     C_3   0.216424 0.112415 0.267158 -0.309485
C32   C     C_3   0.350401 0.159744 0.192805 -0.443357
C33   C     C_3   0.569241 0.333549 0.628634 -0.235084
C34   C     C_R   0.421475 0.411412 0.915598 -0.145770
C35   C     C_3   0.513888 0.198427 0.628180 -0.331792
C36   C     C_3   0.503123 0.129572 0.717277 -0.465556
C37   C     C_3   0.418363 0.690014 0.390409 -0.243751
C38   C     C_3   0.530056 0.719807 0.298722 -0.345292
C39   C     C_3   0.468144 0.804373 0.239227 -0.460989
C40   C     C_R   0.732967 0.503250 0.048665 -0.142230
C41   C     C_R   0.275722 0.393495 0.963120 -0.146114
C42   C     C_R   0.889158 0.061615 0.555276 -0.143284
C43   C     C_R   0.113658 0.937997 0.440496 -0.141646
C44   C     C_R   0.885300 0.932638 0.560411 -0.019113
Cu1   Cu    Cu3+1 0.140660 0.500020 0.500000 0.897294
Cu2   Cu    Cu3+1 0.859340 0.499980 0.500000 0.897882
H1    H     H_    0.810728 0.519851 0.085519 0.106432
H2    H     H_    0.449943 0.387388 0.846958 0.093165
H3    H     H_    0.806305 0.110315 0.602154 0.111689
H4    H     H_    0.199116 0.888920 0.395287 0.104963
H5    H     H_    0.309948 0.367535 0.604906 0.120422
H6    H     H_    0.685790 0.646586 0.405350 0.115401
H7    H     H_    0.560544 0.662843 0.662469 0.176109
H8    H     H_    0.475608 0.793293 0.723374 0.142226
H9    H     H_    0.420879 0.742830 0.628860 0.147122
H10   H     H_    0.580273 0.932541 0.585369 0.146508
H11   H     H_    0.663863 0.803856 0.526869 0.186659
H12   H     H_    0.199666 0.360352 0.928937 0.105572
H13   H     H_    0.796578 0.774736 0.651963 0.166519
H14   H     H_    0.726724 0.918651 0.690723 0.123241
H15   H     H_    0.380127 0.256594 0.203345 0.167263
H16   H     H_    0.444116 0.101014 0.191510 0.143978
H17   H     H_    0.327565 0.156599 0.127319 0.157561
H18   H     H_    0.197126 0.012424 0.258497 0.160039
H19   H     H_    0.120211 0.163186 0.260989 0.172669
H20   H     H_    0.244921 0.233123 0.366631 0.187155
H21   H     H_    0.342172 0.094845 0.362645 0.134515
H22   H     H_    0.610231 0.130562 0.730988 0.144943
H23   H     H_    0.346923 0.533118 0.220569 0.121147
H24   H     H_    0.423460 0.173976 0.772472 0.152949
H25   H     H_    0.464613 0.032196 0.716306 0.149862
H26   H     H_    0.404800 0.191437 0.617789 0.154424
H27   H     H_    0.589046 0.151708 0.572400 0.163413
H28   H     H_    0.683702 0.328748 0.625699 0.214828
H29   H     H_    0.512152 0.372426 0.693288 0.100789
H30   H     H_    0.370101 0.760117 0.227521 0.149061
H31   H     H_    0.438752 0.893734 0.271082 0.148857
H32   H     H_    0.551112 0.823293 0.173768 0.155030
H33   H     H_    0.628026 0.768789 0.306972 0.149742
H34   H     H_    0.648612 0.471771 0.776722 0.109688
H35   H     H_    0.563744 0.632799 0.264836 0.158352
H36   H     H_    0.314767 0.671740 0.377239 0.221748
H37   H     H_    0.407301 0.774107 0.430133 0.124117
H38   H     H_    0.915715 0.419257 0.224023 0.127501
H39   H     H_    0.087163 0.533612 0.782939 0.127867
H40   H     H_    0.005218 0.537984 0.945347 0.111548
H41   H     H_    0.002501 0.370034 0.066862 0.106105
H42   H     H_    0.561273 0.484605 0.166794 0.095500
N1    N     N_R   0.352080 0.500030 0.499980 -0.238336
N2    N     N_R   0.647920 0.499970 0.500020 -0.236428
O1    O     O_R   0.118740 0.319660 0.500000 -0.510435
O2    O     O_R   0.881260 0.680340 0.500000 -0.507466
O3    O     O_R   0.881170 0.319630 0.500010 -0.512340
O4    O     O_R   0.118830 0.680370 0.499990 -0.522225
O5    O     O_R   0.055570 0.500030 0.629830 -0.500360
O6    O     O_R   0.944430 0.499970 0.370170 -0.499328
O7    O     O_R   0.818000 0.500000 0.629840 -0.533334
O8    O     O_R   0.182000 0.500000 0.370160 -0.528502

loop_
_geom_bond_atom_site_label_1
_geom_bond_atom_site_label_2
_ccdc_geom_bond_type
C40   H1    S    
C21   C26   A    
C11   C18   A    
C35   C36   S    
C28   H10   S    
Cu1   Cu2   S    
C3    C43   A    
C29   H7    S    
C39   H31   S    
C28   C29   S    
C19   C21   A    
C32   H15   S    
C27   H14   S    
C38   C39   S    
Cu2   O2    S    
C29   H8    S    
C23   C40   A    
C7    N1    A    
C31   H19   S    
C23   C26   A    
C10   O8    A    
C3    C12   S    
C27   C44   S    
C33   H29   S    
C5    C33   S    
Cu1   N1    S    
C8    H6    S    
C30   H21   S    
C36   H25   S    
C25   C34   A    
C1    O1    A    
C24   C41   A    
C12   O4    A    
C34   C41   A    
C42   C44   A    
C38   H33   S    
Cu1   O4    S    
C36   H24   S    
C3    C44   A    
C13   C19   A    
C39   H32   S    
C14   H40   S    
C5    C7    A    
C6    C8    A    
C29   H9    S    
C25   C26   A    
C28   H11   S    
C2    C4    A    
C37   C38   S    
C11   C16   A    
C31   C32   S    
C10   O6    A    
C2    C43   A    
C22   C40   A    
C6    C37   S    
Cu2   O6    S    
C39   H30   S    
C9    C11   S    
C30   H20   S    
C18   H34   S    
C15   C24   A    
Cu2   O7    S    
C20   C22   A    
C35   H26   S    
C23   H42   S    
C38   H35   S    
C16   H39   S    
C14   C16   A    
C37   H36   S    
C19   H23   S    
C8    N2    A    
C2    C30   S    
Cu1   O5    S    
C15   H41   S    
C15   C17   A    
C9    O5    A    
C35   H27   S    
C9    O7    A    
C31   H18   S    
C12   O2    A    
C5    N2    A    
C32   H17   S    
C10   C13   S    
C41   H12   S    
C36   H22   S    
C43   H4    S    
Cu2   N2    S    
C6    N1    A    
C13   C17   A    
Cu1   O8    S    
C17   H38   S    
C1    C4    S    
C32   H16   S    
C27   H13   S    
C14   C22   A    
C30   C31   S    
Cu2   O3    S    
C4    C42   A    
C33   C35   S    
C18   C20   A    
Cu1   O1    S    
C42   H3    S    
C7    H5    S    
C33   H28   S    
C34   H2    S    
C1    O3    A    
C20   C25   A    
C21   C24   A    
C27   C28   S    
C37   H37   S    
