data_mof_unit_15407.cif
_audit_creation_date              2012-10-26T21:13:54-0400
_audit_creation_method            fapswitch 2.2
_symmetry_space_group_name_H-M    P1
_symmetry_Int_Tables_number       1
_space_group_crystal_system       triclinic
_cell_length_a                    15.751241
_cell_length_b                    15.853801
_cell_length_c                    17.063312
_cell_angle_alpha                 84.340772
_cell_angle_beta                  89.745182
_cell_angle_gamma                 112.600623
_cell_volume                      3910.44712498

loop_
_atom_site_label
_atom_site_type_symbol
_atom_type_description
_atom_site_fract_x
_atom_site_fract_y
_atom_site_fract_z
_atom_type_partial_charge
C1    C     C_R   0.499984 0.510002 0.348713 0.561366
C2    C     C_R   0.472372 0.548532 0.774878 -0.109014
C3    C     C_R   0.438136 0.434852 0.147593 0.298604
C4    C     C_R   0.457904 0.539048 0.856427 0.291695
C5    C     C_R   0.480103 0.519861 0.099343 0.205663
C6    C     C_R   0.470405 0.465450 0.902796 0.206788
C7    C     C_R   0.523634 0.600583 0.134694 -0.139908
C8    C     C_R   0.487731 0.398800 0.865297 -0.141536
C9    C     C_R   0.530203 0.597704 0.216050 -0.158624
C10   C     C_R   0.497268 0.406437 0.783494 -0.166236
C11   C     C_R   0.544228 0.261761 0.460084 0.340506
C12   C     C_R   0.498240 0.489398 0.651534 0.559762
C13   C     C_R   0.454769 0.738138 0.538944 0.342266
C14   C     C_R   0.541260 0.171798 0.463834 -0.124708
C15   C     C_R   0.458613 0.828361 0.535666 -0.117789
C16   C     C_R   0.675761 0.556062 0.498530 0.577255
C17   C     C_R   0.324618 0.444254 0.498898 0.570521
C18   C     C_R   0.480725 0.101867 0.518070 0.190174
C19   C     C_R   0.520814 0.898651 0.482732 0.180462
C20   C     C_R   0.424107 0.126198 0.567972 0.222920
C21   C     C_R   0.578291 0.874420 0.433674 0.208039
C22   C     C_R   0.429472 0.217670 0.562893 0.054418
C23   C     C_R   0.106362 0.613733 0.483046 -0.103798
C24   C     C_R   0.572166 0.782699 0.438375 0.058999
C25   C     C_R   0.777413 0.591188 0.496710 0.007425
C26   C     C_R   0.224809 0.411378 0.486938 0.004155
C27   C     C_R   0.929184 0.710771 0.504839 -0.065569
C28   C     C_R   0.080655 0.302889 0.444251 -0.081234
C29   C     C_R   0.833767 0.683292 0.506517 0.212269
C30   C     C_R   0.173123 0.325282 0.460484 0.203663
C31   C     C_R   0.818895 0.529505 0.484764 -0.158473
C32   C     C_R   0.182315 0.472762 0.495598 -0.167805
C33   C     C_R   0.914984 0.556990 0.479982 -0.021892
C34   C     C_R   0.906300 0.407160 0.441169 -0.106209
C35   C     C_R   0.091735 0.454154 0.473564 -0.023627
C36   C     C_R   0.970615 0.648669 0.492729 0.022155
C37   C     C_R   0.039002 0.366085 0.450891 0.021077
C38   C     C_R   0.956601 0.494233 0.466378 -0.012888
C39   C     C_R   0.052190 0.520645 0.475572 -0.011824
C40   C     C_3   0.176488 0.778351 0.566912 0.017862
C41   C     C_3   0.119204 0.760466 0.644319 -0.276310
C42   C     C_3   0.180350 0.775894 0.714990 -0.449283
C43   C     C_3   0.821724 0.203572 0.457232 0.020983
C44   C     C_3   0.851279 0.140160 0.514230 -0.266199
C45   C     C_R   0.066639 0.677021 0.494127 0.271743
C46   C     C_3   0.770167 0.073357 0.567118 -0.429900
C47   C     C_3   0.338587 0.568696 0.906995 0.014605
C48   C     C_3   0.287530 0.588743 0.835771 -0.270976
C49   C     C_3   0.185478 0.561257 0.856796 -0.478005
C50   C     C_3   0.296851 0.349182 0.104188 0.009666
C51   C     C_3   0.234399 0.306479 0.178843 -0.271220
C52   C     C_3   0.134618 0.291775 0.163465 -0.451778
C53   C     C_R   0.945895 0.342699 0.434748 0.267057
C54   C     C_R   0.494650 0.513290 0.263197 -0.028241
C55   C     C_R   0.490764 0.482014 0.737796 -0.037023
C56   C     C_R   0.449753 0.432132 0.228642 -0.099408
Cl1   Cl    Cl    0.375186 0.656974 0.608564 -0.685498
Cl2   Cl    Cl    0.621059 0.342490 0.388416 -0.587615
Cl3   Cl    Cl    0.345668 0.043184 0.637285 -0.612166
Cl4   Cl    Cl    0.658772 0.957861 0.365927 -0.573763
Cl5   Cl    Cl    0.220092 0.243623 0.443884 -0.575603
Cl6   Cl    Cl    0.790118 0.766995 0.524905 -0.573300
Cu1   Cu    Cu3+1 0.504410 0.586150 0.496120 1.061695
Cu2   Cu    Cu3+1 0.495590 0.413850 0.503880 1.061627
H1    H     H_    0.412827 0.842824 0.574863 0.169190
H2    H     H_    0.836935 0.388691 0.422015 0.156125
H3    H     H_    0.466178 0.606884 0.740627 0.199278
H4    H     H_    0.419961 0.366745 0.264909 0.175712
H5    H     H_    0.553841 0.666049 0.098665 0.157717
H6    H     H_    0.495347 0.341283 0.899924 0.156195
H7    H     H_    0.564496 0.661237 0.241973 0.156754
H8    H     H_    0.510745 0.353738 0.756147 0.154520
H9    H     H_    0.227601 0.850450 0.561417 0.216110
H10   H     H_    0.217414 0.734684 0.568879 0.146934
H11   H     H_    0.081641 0.807287 0.642518 0.197601
H12   H     H_    0.586187 0.157183 0.423855 0.177421
H13   H     H_    0.067946 0.688404 0.651892 0.156316
H14   H     H_    0.219183 0.730263 0.717297 0.165975
H15   H     H_    0.137074 0.760109 0.770243 0.156778
H16   H     H_    0.229805 0.848528 0.710987 0.220318
H17   H     H_    0.766356 0.160507 0.421218 0.217433
H18   H     H_    0.790644 0.242170 0.490967 0.114084
H19   H     H_    0.880225 0.100379 0.480107 0.215630
H20   H     H_    0.905546 0.182153 0.551743 0.160433
H21   H     H_    0.740541 0.111612 0.602355 0.151555
H22   H     H_    0.793907 0.028897 0.608068 0.182230
H23   H     H_    0.385657 0.235247 0.601619 0.172525
H24   H     H_    0.715977 0.028920 0.531026 0.207537
H25   H     H_    0.326722 0.604111 0.956432 0.165933
H26   H     H_    0.309241 0.493709 0.927965 0.118335
H27   H     H_    0.318542 0.663299 0.814733 0.202305
H28   H     H_    0.294087 0.549685 0.787105 0.187259
H29   H     H_    0.153186 0.486916 0.878228 0.154865
H30   H     H_    0.150062 0.574521 0.803719 0.160956
H31   H     H_    0.176481 0.602005 0.903173 0.156990
H32   H     H_    0.269280 0.304345 0.056555 0.167386
H33   H     H_    0.294573 0.417162 0.082918 0.116641
H34   H     H_    0.616749 0.765229 0.400392 0.177842
H35   H     H_    0.238052 0.239319 0.199614 0.210721
H36   H     H_    0.257967 0.352441 0.226229 0.168270
H37   H     H_    0.129322 0.358345 0.143464 0.152239
H38   H     H_    0.091532 0.261651 0.218707 0.190285
H39   H     H_    0.107936 0.243918 0.117800 0.161131
H40   H     H_    0.221193 0.535108 0.520968 0.173480
H41   H     H_    0.774529 0.458732 0.482008 0.165259
H42   H     H_    0.970851 0.781137 0.514192 0.200388
H43   H     H_    0.041897 0.236083 0.425152 0.190996
H44   H     H_    0.180378 0.640088 0.476246 0.128664
N1    N     N_2   0.480986 0.528355 0.015878 -0.186491
N2    N     N_2   0.467343 0.455764 0.986376 -0.184016
N3    N     N_R   0.488960 0.284450 0.509710 -0.243622
N4    N     N_R   0.511040 0.715550 0.490290 -0.237196
N5    N     N_2   0.474464 0.008161 0.523717 -0.188809
N6    N     N_2   0.527372 0.992458 0.477197 -0.200153
O1    O     O_R   0.504130 0.580750 0.382440 -0.527307
O2    O     O_3   0.896428 0.260241 0.404864 -0.560770
O3    O     O_3   0.434733 0.604059 0.889495 -0.538312
O4    O     O_3   0.387301 0.353741 0.116862 -0.533208
O5    O     O_R   0.495870 0.419250 0.617560 -0.528269
O6    O     O_R   0.496670 0.435250 0.388990 -0.436081
O7    O     O_R   0.503330 0.564750 0.611010 -0.444543
O8    O     O_R   0.635650 0.613550 0.494890 -0.450263
O9    O     O_R   0.364350 0.386450 0.505110 -0.453827
O10   O     O_R   0.628200 0.468050 0.501440 -0.477922
O11   O     O_R   0.371800 0.531950 0.498560 -0.469191
O12   O     O_3   0.121131 0.768761 0.500386 -0.562335

loop_
_geom_bond_atom_site_label_1
_geom_bond_atom_site_label_2
_ccdc_geom_bond_type
C25   C31   A    
C52   H39   S    
C42   H16   S    
C23   C45   A    
C27   C29   A    
C31   H41   S    
C41   C42   S    
C14   C18   A    
C2    C4    A    
C24   N4    A    
C43   C44   S    
C44   H19   S    
C17   O11   A    
C34   H2    S    
C26   C32   A    
C52   H38   S    
Cu2   O5    S    
C24   H34   S    
C17   C26   S    
C35   C37   A    
C13   N4    A    
C2    C55   A    
C41   H13   S    
C38   C39   A    
C11   C14   A    
C13   Cl1   S    
C28   H43   S    
C15   H1    S    
C16   C25   S    
C33   C36   A    
C40   H9    S    
Cu1   N4    S    
C16   O8    A    
C15   C19   A    
C17   O9    A    
C12   O7    A    
C48   H27   S    
C32   H40   S    
C49   H30   S    
C11   Cl2   S    
C53   O2    S    
C46   H21   S    
Cu1   O1    S    
C42   H15   S    
C50   O4    S    
C25   C29   A    
C47   H25   S    
C18   N5    S    
Cu1   O7    S    
C44   C46   S    
C46   H24   S    
C51   H35   S    
C54   C56   A    
C52   H37   S    
C11   N3    A    
C51   C52   S    
C32   C35   A    
C21   Cl4   S    
C4    C6    A    
C2    H3    S    
C5    C7    A    
Cu2   N3    S    
C6    C8    A    
C27   H42   S    
C44   H20   S    
Cu2   O10   S    
C1    O6    A    
C14   H12   S    
C6    N2    S    
C35   C39   A    
C1    C54   S    
C3    O4    S    
C43   O2    S    
C41   H11   S    
C12   O5    A    
C3    C56   A    
C47   C48   S    
C45   O12   S    
C40   O12   S    
C31   C33   A    
C50   C51   S    
C36   C45   A    
C22   H23   S    
C49   H31   S    
C20   Cl3   S    
C10   C55   A    
Cu1   O11   S    
C40   C41   S    
C20   C22   A    
C42   H14   S    
C13   C15   A    
C43   H17   S    
C47   H26   S    
C4    O3    S    
C30   Cl5   S    
Cu1   O8    S    
N5    N6    D    
C51   H36   S    
C7    C9    A    
C29   Cl6   S    
C48   C49   S    
C50   H33   S    
C19   C21   A    
C34   C38   A    
C9    H7    S    
C3    C5    A    
Cu2   O6    S    
C7    H5    S    
C26   C30   A    
C27   C36   A    
Cu2   O9    S    
C8    H6    S    
C33   C38   A    
C19   N6    S    
C28   C30   A    
C16   O10   A    
C37   C53   A    
C56   H4    S    
N1    N2    D    
C50   H32   S    
C5    N1    S    
C28   C37   A    
C23   C39   A    
C23   H44   S    
C40   H10   S    
C18   C20   A    
C12   C55   S    
Cu1   Cu2   S    
C47   O3    S    
C34   C53   A    
C8    C10   A    
C22   N3    A    
C48   H28   S    
C21   C24   A    
C43   H18   S    
C9    C54   A    
C1    O1    A    
C49   H29   S    
C46   H22   S    
C10   H8    S    
