data_mof_unit_47837.cif
_audit_creation_date              2012-12-10T17:14:29-0500
_audit_creation_method            fapswitch 2.2
_symmetry_space_group_name_H-M    P1
_symmetry_Int_Tables_number       1
_space_group_crystal_system       triclinic
_cell_length_a                    15.175211
_cell_length_b                    14.951014
_cell_length_c                    10.23004
_cell_angle_alpha                 89.922344
_cell_angle_beta                  84.684726
_cell_angle_gamma                 88.313941
_cell_volume                      2310.0573483

loop_
_atom_site_label
_atom_site_type_symbol
_atom_type_description
_atom_site_fract_x
_atom_site_fract_y
_atom_site_fract_z
_atom_type_partial_charge
C1    C     C_R   0.388411 0.123377 0.550823 0.927760
C2    C     C_2   0.509753 0.016547 0.070392 0.507153
C3    C     C_2   0.989459 0.517397 0.929585 0.495169
C4    C     C_2   0.009753 0.516547 0.070392 0.507153
C5    C     C_2   0.319713 0.816685 0.577956 -0.265120
C6    C     C_2   0.691323 0.177390 0.425880 -0.247270
C7    C     C_2   0.692577 0.819489 0.417164 -0.284003
C8    C     C_2   0.332029 0.204161 0.568835 -0.307557
C9    C     C_2   0.819713 0.316685 0.577956 -0.265120
C10   C     C_2   0.191323 0.677390 0.425880 -0.247269
C11   C     C_2   0.192577 0.319489 0.417164 -0.284003
C12   C     C_R   0.615724 0.880441 0.446852 0.869239
C13   C     C_2   0.832029 0.704161 0.568835 -0.307557
C14   C     C_2   0.324573 0.742110 0.502293 -0.259401
C15   C     C_2   0.752433 0.180992 0.517290 -0.070072
C16   C     C_2   0.769883 0.838038 0.467551 -0.087087
C17   C     C_2   0.339792 0.268811 0.474746 -0.145711
C18   C     C_2   0.824573 0.242110 0.502293 -0.259401
C19   C     C_2   0.252433 0.680992 0.517290 -0.070072
C20   C     C_2   0.269883 0.338038 0.467551 -0.087087
C21   C     C_2   0.839792 0.768811 0.474746 -0.145710
C22   C     C_2   0.369812 0.957515 0.148577 0.593463
C23   C     C_R   0.615990 0.117854 0.448075 0.866151
C24   C     C_2   0.629524 0.951213 0.851245 0.615434
C25   C     C_2   0.869812 0.457515 0.148577 0.593463
C26   C     C_2   0.129524 0.451213 0.851245 0.615434
C27   C     C_2   0.753400 0.131110 0.643925 0.445024
C28   C     C_2   0.405027 0.713704 0.415739 0.524200
C29   C     C_2   0.419032 0.275295 0.378007 0.595689
C30   C     C_2   0.790164 0.928716 0.512202 0.510746
C31   C     C_2   0.253400 0.631110 0.643925 0.445023
C32   C     C_2   0.905027 0.213704 0.415739 0.524199
C33   C     C_2   0.919032 0.775295 0.378006 0.595686
C34   C     C_R   0.386621 0.881519 0.552481 0.928615
C35   C     C_2   0.290164 0.428716 0.512202 0.510746
C36   C     C_2   0.699754 0.233311 0.304505 0.503437
C37   C     C_2   0.240742 0.843679 0.668832 0.513550
C38   C     C_2   0.262350 0.208845 0.681198 0.515027
C39   C     C_2   0.683012 0.736855 0.339224 0.490965
C40   C     C_2   0.199754 0.733311 0.304505 0.503438
C41   C     C_2   0.740742 0.343679 0.668832 0.513551
C42   C     C_2   0.762351 0.708845 0.681198 0.515027
C43   C     C_2   0.183012 0.236855 0.339224 0.490965
C44   C     C_R   0.888411 0.623377 0.550823 0.927760
C45   C     C_R   0.115724 0.380441 0.446852 0.869239
C46   C     C_R   0.115990 0.617854 0.448075 0.866151
C47   C     C_R   0.886621 0.381519 0.552481 0.928615
C48   C     C_2   0.489459 0.017397 0.929585 0.495169
H1    H     H_    0.312154 0.970376 0.217494 0.063540
H2    H     H_    0.965348 0.250536 0.414603 0.109365
H3    H     H_    0.980124 0.739656 0.393758 0.062289
H4    H     H_    0.248601 0.485644 0.490419 0.025054
H5    H     H_    0.755019 0.277213 0.284563 0.102164
H6    H     H_    0.179350 0.808378 0.669892 0.127767
H7    H     H_    0.220849 0.268710 0.699132 0.087920
H8    H     H_    0.737101 0.687829 0.323714 0.092846
H9    H     H_    0.255018 0.777213 0.284563 0.102164
H10   H     H_    0.679350 0.308378 0.669891 0.127767
H11   H     H_    0.720850 0.768711 0.699133 0.087920
H12   H     H_    0.687230 0.959589 0.782099 0.064585
H13   H     H_    0.237100 0.187829 0.323714 0.092846
H14   H     H_    0.612003 0.003562 0.166116 0.383732
H15   H     H_    0.387379 0.007576 0.834701 0.410447
H16   H     H_    0.112003 0.503563 0.166116 0.383732
H17   H     H_    0.887379 0.507576 0.834701 0.410446
H18   H     H_    0.812154 0.470376 0.217494 0.063540
H19   H     H_    0.187230 0.459589 0.782099 0.064586
H20   H     H_    0.811141 0.090297 0.661547 0.133080
H21   H     H_    0.465348 0.750536 0.414604 0.109365
H22   H     H_    0.480125 0.239656 0.393760 0.062287
H23   H     H_    0.748601 0.985644 0.490419 0.025054
H24   H     H_    0.311141 0.590297 0.661547 0.133080
N1    N     N_2   0.549450 0.000000 0.831550 -0.207685
N2    N     N_2   0.450550 0.000000 0.168450 -0.235348
N3    N     N_2   0.049450 0.500000 0.831550 -0.207685
N4    N     N_2   0.950550 0.500000 0.168450 -0.235349
O1    O     O_R   0.398960 0.091100 0.433300 -0.657484
O2    O     O_R   0.569290 0.908910 0.353790 -0.586662
O3    O     O_R   0.569290 0.091090 0.353790 -0.571947
O4    O     O_R   0.430710 0.908910 0.646210 -0.590482
O5    O     O_R   0.930710 0.591090 0.646210 -0.550254
O6    O     O_R   0.069290 0.408910 0.353790 -0.586662
O7    O     O_R   0.069290 0.591090 0.353790 -0.571947
O8    O     O_R   0.930710 0.408910 0.646210 -0.590482
O9    O     O_2   0.366083 0.901427 0.062591 -0.543139
O10   O     O_2   0.632565 0.894696 0.937307 -0.566260
O11   O     O_2   0.866083 0.401427 0.062591 -0.543139
O12   O     O_R   0.601040 0.908900 0.566700 -0.671863
O13   O     O_2   0.132565 0.394696 0.937307 -0.566260
O14   O     O_2   0.696924 0.145141 0.735190 -0.544041
O15   O     O_2   0.404763 0.647358 0.346256 -0.492090
O16   O     O_2   0.416963 0.322528 0.280781 -0.491130
O17   O     O_2   0.855671 0.940488 0.570239 -0.565659
O18   O     O_2   0.196924 0.645141 0.735189 -0.544041
O19   O     O_2   0.904763 0.147358 0.346257 -0.492090
O20   O     O_2   0.916963 0.822529 0.280780 -0.491130
O21   O     O_2   0.355671 0.440489 0.570239 -0.565660
O22   O     O_2   0.644397 0.231603 0.225294 -0.471947
O23   O     O_R   0.601040 0.091100 0.566700 -0.598197
O24   O     O_2   0.243077 0.907728 0.742290 -0.493875
O25   O     O_2   0.250771 0.145440 0.755532 -0.472099
O26   O     O_2   0.614850 0.723397 0.288792 -0.515870
O27   O     O_2   0.144397 0.731603 0.225294 -0.471947
O28   O     O_2   0.743077 0.407728 0.742291 -0.493876
O29   O     O_2   0.750771 0.645440 0.755532 -0.472099
O30   O     O_2   0.114850 0.223397 0.288792 -0.515870
O31   O     O_3   0.593250 0.041890 0.094480 -0.697448
O32   O     O_3   0.405452 0.045933 0.905438 -0.703074
O33   O     O_3   0.093250 0.541890 0.094480 -0.697448
O34   O     O_R   0.398960 0.908900 0.433300 -0.660780
O35   O     O_3   0.905452 0.545933 0.905438 -0.703073
O36   O     O_R   0.898960 0.591100 0.433300 -0.657485
O37   O     O_R   0.101040 0.408900 0.566700 -0.671863
O38   O     O_R   0.101040 0.591100 0.566700 -0.598196
O39   O     O_R   0.898960 0.408900 0.433300 -0.660780
O40   O     O_R   0.430710 0.091090 0.646210 -0.550254
Zn1   Zn    Zn3+2 0.478810 0.000000 0.357840 0.980137
Zn2   Zn    Zn3+2 0.521190 0.000000 0.642160 1.009009
Zn3   Zn    Zn3+2 0.978810 0.500000 0.357840 0.980136
Zn4   Zn    Zn3+2 0.021190 0.500000 0.642160 1.009009

loop_
_geom_bond_atom_site_label_1
_geom_bond_atom_site_label_2
_ccdc_geom_bond_type
C15   C18   S    
C23   O23   A    
C4    O33   S    
C16   C21   S    
C5    C37   S    
C1    C8    S    
C1    O1    A    
C45   O6    A    
C19   C31   S    
C30   H23   S    
C26   O13   D    
C47   O39   A    
O5    Zn4   S    
C26   H19   S    
C41   H10   S    
C38   O25   D    
O1    Zn1   S    
C24   N1    S    
C21   C33   S    
C16   C30   S    
C2    O31   S    
C25   O11   D    
C17   C20   S    
C17   C29   S    
C27   O14   D    
C10   C40   S    
C22   O9    D    
O7    Zn3   S    
H17   O35   S    
C36   H5    S    
C34   O4    A    
C6    C15   D    
C25   H18   S    
C20   C35   S    
C38   H7    S    
C28   H21   S    
C3    O35   S    
C12   O2    A    
C10   C46   S    
C11   C43   S    
C27   H20   S    
C1    O40   A    
C3    N3    D    
C2    N2    D    
C24   H12   S    
C8    C38   S    
O6    Zn3   S    
C14   C19   S    
O34   Zn1   S    
C13   C42   S    
C7    C12   S    
O4    Zn2   S    
C11   C20   D    
N4    Zn3   S    
C12   O12   A    
O2    Zn1   S    
C44   O5    A    
C46   O38   A    
H14   O31   S    
C2    C48   S    
C33   H3    S    
C43   O30   D    
O37   Zn4   S    
C15   C27   S    
C39   H8    S    
C10   C19   D    
O8    Zn4   S    
C5    C34   S    
C26   N3    S    
C13   C21   D    
C47   O8    A    
C13   C44   S    
C32   H2    S    
C5    C14   D    
O40   Zn2   S    
C22   H1    S    
C37   H6    S    
C44   O36   A    
C31   H24   S    
C9    C47   S    
O39   Zn3   S    
C34   O34   A    
C11   C45   S    
C18   C32   S    
C22   N2    S    
O12   Zn2   S    
C3    C4    S    
C33   O20   D    
C43   H13   S    
C39   O26   D    
C29   H22   S    
N2    Zn1   S    
C7    C16   D    
C40   H9    S    
N1    Zn2   S    
C48   N1    D    
N3    Zn4   S    
C42   H11   S    
O36   Zn3   S    
C30   O17   D    
C31   O18   D    
C9    C41   S    
C8    C17   D    
C41   O28   D    
C25   N4    S    
C23   O3    A    
O23   Zn2   S    
H16   O33   S    
C48   O32   S    
C6    C23   S    
O3    Zn1   S    
C6    C36   S    
C28   O15   D    
C37   O24   D    
C42   O29   D    
C4    N4    D    
C46   O7    A    
C45   O37   A    
C9    C18   D    
C32   O19   D    
C35   H4    S    
C7    C39   S    
C36   O22   D    
C14   C28   S    
H15   O32   S    
C35   O21   D    
C24   O10   D    
C29   O16   D    
O38   Zn4   S    
C40   O27   D    
