data_mof_unit_7599.cif
_audit_creation_date              2012-12-10T19:45:43-0500
_audit_creation_method            fapswitch 2.2
_symmetry_space_group_name_H-M    P1
_symmetry_Int_Tables_number       1
_space_group_crystal_system       triclinic
_cell_length_a                    10.841307
_cell_length_b                    14.691642
_cell_length_c                    14.757845
_cell_angle_alpha                 65.18187
_cell_angle_beta                  102.657941
_cell_angle_gamma                 102.602943
_cell_volume                      2060.38756057

loop_
_atom_site_label
_atom_site_type_symbol
_atom_type_description
_atom_site_fract_x
_atom_site_fract_y
_atom_site_fract_z
_atom_type_partial_charge
C1    C     C_R   0.478661 0.119630 0.312655 0.793487
C2    C     C_R   0.504961 0.782129 0.964304 -0.138007
C3    C     C_R   0.477385 0.150464 0.133252 -0.216811
C4    C     C_R   0.522606 0.849534 0.866750 -0.216815
C5    C     C_R   0.475387 0.290465 0.177842 -0.188897
C6    C     C_R   0.524571 0.709531 0.822153 -0.188907
C7    C     C_R   0.486276 0.360144 0.078406 0.066868
C8    C     C_R   0.513671 0.639850 0.921585 0.066874
C9    C     C_R   0.503762 0.322983 0.007995 0.075411
C10   C     C_R   0.496185 0.677010 0.991995 0.075441
C11   C     C_R   0.486411 0.465830 0.048870 -0.003799
C12   C     C_R   0.521335 0.880370 0.687345 0.793503
C13   C     C_R   0.513526 0.534164 0.951117 -0.003804
C14   C     C_R   0.541586 0.494953 0.886416 -0.184814
C15   C     C_R   0.458343 0.505040 0.113567 -0.184812
C16   C     C_R   0.263066 0.999123 0.502880 0.795716
C17   C     C_R   0.736934 0.000878 0.497117 0.795704
C18   C     C_R   0.533979 0.391601 0.912959 0.383550
C19   C     C_R   0.465946 0.608393 0.087024 0.383476
C20   C     C_R   0.737379 0.298029 0.643814 -0.191340
C21   C     C_R   0.262605 0.701957 0.356213 -0.191324
C22   C     C_R   0.693826 0.210820 0.624462 0.066999
C23   C     C_R   0.870372 0.000753 0.495451 -0.084368
C24   C     C_R   0.306160 0.789168 0.375558 0.066993
C25   C     C_R   0.512276 0.281325 0.516664 0.054300
C26   C     C_R   0.487738 0.718684 0.483320 0.054296
C27   C     C_R   0.549945 0.372121 0.534471 -0.028332
C28   C     C_R   0.450062 0.627881 0.465527 -0.028386
C29   C     C_R   0.667271 0.380131 0.598099 0.103993
C30   C     C_R   0.332723 0.619862 0.401916 0.103957
C31   C     C_R   0.476777 0.454898 0.490468 0.069020
C32   C     C_R   0.523230 0.545103 0.509531 0.069004
C33   C     C_R   0.642089 0.550210 0.570938 -0.190711
C34   C     C_R   0.129627 0.999253 0.504538 -0.084365
C35   C     C_R   0.357909 0.449785 0.429076 -0.190752
C36   C     C_R   0.712838 0.469971 0.614392 0.454175
C37   C     C_R   0.287153 0.530018 0.385631 0.454164
C38   C     C_R   0.321063 0.062086 0.785934 -0.214558
C39   C     C_R   0.678864 0.937773 0.214157 -0.214539
C40   C     C_R   0.249973 0.024486 0.714641 -0.095889
C41   C     C_R   0.749963 0.975419 0.285409 -0.095833
C42   C     C_R   0.180493 0.088038 0.627262 0.062551
C43   C     C_R   0.819509 0.911919 0.372768 0.062532
C44   C     C_R   0.184767 0.189870 0.611538 -0.238926
C45   C     C_R   0.908672 0.954595 0.441335 0.027570
C46   C     C_R   0.815300 0.810094 0.388508 -0.238933
C47   C     C_R   0.256453 0.227219 0.682943 0.439708
C48   C     C_R   0.743616 0.772703 0.317139 0.439619
C49   C     C_R   0.323921 0.163021 0.770257 -0.118290
C50   C     C_R   0.676074 0.836847 0.229848 -0.118309
C51   C     C_R   0.961946 0.045882 0.552835 -0.209449
C52   C     C_R   0.038055 0.954129 0.447149 -0.209476
C53   C     C_R   0.091327 0.045404 0.558658 0.027558
C54   C     C_R   0.473726 0.186993 0.205795 -0.049509
C55   C     C_R   0.526257 0.813005 0.794204 -0.049517
C56   C     C_R   0.495009 0.217866 0.035693 -0.137982
Cl1   Cl    Cl    0.860393 0.486813 0.689096 -0.547949
Cl2   Cl    Cl    0.139585 0.513164 0.310951 -0.547908
Cl3   Cl    Cl    0.256538 0.352918 0.665608 -0.571393
Cl4   Cl    Cl    0.743621 0.647019 0.334490 -0.571450
Cl5   Cl    Cl    0.572691 0.352500 0.826128 -0.635902
Cl6   Cl    Cl    0.427196 0.647495 0.173835 -0.636005
Cu1   Cu    Cu3+1 0.466270 0.918260 0.475690 0.960952
Cu2   Cu    Cu3+1 0.533730 0.081740 0.524310 0.960966
H1    H     H_    0.376368 0.190533 0.827019 0.189347
H2    H     H_    0.749051 0.148514 0.658751 0.129779
H3    H     H_    0.826264 0.300531 0.693793 0.207143
H4    H     H_    0.173709 0.699446 0.306252 0.207161
H5    H     H_    0.684474 0.616582 0.586255 0.145990
H6    H     H_    0.315519 0.383407 0.413772 0.145989
H7    H     H_    0.371147 0.012445 0.854821 0.146226
H8    H     H_    0.628714 0.987369 0.145291 0.146211
H9    H     H_    0.245699 0.945324 0.728986 0.133281
H10   H     H_    0.754185 0.054576 0.271049 0.133260
H11   H     H_    0.130059 0.239251 0.545161 0.182520
H12   H     H_    0.623620 0.809300 0.173115 0.189426
H13   H     H_    0.870058 0.760752 0.454869 0.182540
H14   H     H_    0.932567 0.079132 0.596503 0.160936
H15   H     H_    0.067437 0.920880 0.403482 0.160929
H16   H     H_    0.525874 0.684995 0.763267 0.151115
H17   H     H_    0.474073 0.315001 0.236726 0.151100
H18   H     H_    0.527255 0.929795 0.846837 0.156881
H19   H     H_    0.472759 0.070205 0.153169 0.156856
H20   H     H_    0.504679 0.186836 0.983337 0.171392
H21   H     H_    0.495299 0.813158 0.016664 0.171403
H22   H     H_    0.572833 0.542692 0.814636 0.175655
H23   H     H_    0.427092 0.457300 0.185344 0.175656
H24   H     H_    0.572085 0.729838 0.533683 0.122543
H25   H     H_    0.427948 0.270184 0.466277 0.122530
H26   H     H_    0.250924 0.851468 0.341281 0.129784
N1    N     N_R   0.584450 0.204570 0.560790 -0.183744
N2    N     N_R   0.415550 0.795430 0.439210 -0.183744
O1    O     O_R   0.455540 0.022090 0.338120 -0.584901
O2    O     O_R   0.544460 0.977910 0.661880 -0.584894
O3    O     O_R   0.512510 0.160150 0.379180 -0.582098
O4    O     O_R   0.487490 0.839850 0.620820 -0.582098
O5    O     O_R   0.291160 0.930970 0.479480 -0.586426
O6    O     O_R   0.708840 0.069030 0.520520 -0.586413
O7    O     O_R   0.348130 0.069020 0.520540 -0.580828
O8    O     O_R   0.651870 0.930980 0.479460 -0.580837

loop_
_geom_bond_atom_site_label_1
_geom_bond_atom_site_label_2
_ccdc_geom_bond_type
C8    C13   A    
C23   C45   A    
C27   C29   A    
C14   C18   A    
C20   H3    S    
C2    C4    A    
C6    C55   A    
C47   C49   A    
C38   C49   A    
C15   C19   A    
C29   C36   A    
C17   C23   S    
C49   H1    S    
C35   C37   A    
C42   C53   S    
C3    C54   A    
C16   O5    A    
C19   Cl6   S    
C26   N2    A    
C33   C36   A    
C40   H9    S    
C2    H21   S    
C22   H2    S    
C16   C34   S    
C41   H10   S    
C11   C15   A    
Cu2   O7    S    
C23   C51   A    
C35   H6    S    
Cu1   N2    S    
C22   N1    A    
C48   Cl4   S    
C52   H15   S    
C17   O6    A    
C37   Cl2   S    
C44   C47   A    
C33   H5    S    
Cu2   O6    S    
C13   C14   A    
C41   C43   A    
C12   O2    A    
C42   C44   A    
C24   N2    A    
C26   C28   A    
C43   C46   A    
C56   H20   S    
C20   C29   A    
C46   C48   A    
C25   N1    A    
C27   C31   A    
C5    C54   A    
C28   C32   A    
C14   H22   S    
C39   C41   A    
C36   Cl1   S    
C4    C55   A    
C5    C7    A    
C6    C8    A    
C45   C52   A    
Cu1   O4    S    
C30   C37   A    
C51   C53   A    
C44   H11   S    
C7    C11   A    
C1    C54   S    
Cu1   O8    S    
C50   H12   S    
C5    H17   S    
C3    C56   A    
C6    H16   S    
C31   C32   A    
C10   C19   A    
C1    O3    A    
C18   Cl5   S    
C9    C56   A    
C48   C50   A    
C43   C45   S    
C39   H8    S    
C26   H24   S    
C20   C22   A    
C21   H4    S    
C3    H19   S    
C31   C35   A    
C2    C10   A    
C15   H23   S    
C7    C9    A    
C38   H7    S    
C25   H25   S    
C8    C10   A    
Cu2   O3    S    
C24   H26   S    
C46   H13   S    
C16   O7    A    
C25   C27   A    
C21   C30   A    
Cu1   O1    S    
C34   C52   A    
C32   C33   A    
C28   C30   A    
C51   H14   S    
Cu2   O2    S    
Cu1   O5    S    
C38   C40   A    
C11   C13   A    
C40   C42   A    
C17   O8    A    
C12   C55   S    
C47   Cl3   S    
Cu1   Cu2   S    
C9    C18   A    
C39   C50   A    
C4    H18   S    
C34   C53   A    
C1    O1    A    
C21   C24   A    
C12   O4    A    
Cu2   N1    S    
