data_mof_unit_21172.cif
_audit_creation_date              2013-03-05T15:50:09-0500
_audit_creation_method            fapswitch 2.2
_symmetry_space_group_name_H-M    P1
_symmetry_Int_Tables_number       1
_space_group_crystal_system       triclinic
_cell_length_a                    19.92004
_cell_length_b                    19.876806
_cell_length_c                    19.937054
_cell_angle_alpha                 110.644518
_cell_angle_beta                  107.486524
_cell_angle_gamma                 110.531107
_cell_volume                      6053.70636642

loop_
_atom_site_label
_atom_site_type_symbol
_atom_site_description
_atom_site_fract_x
_atom_site_fract_y
_atom_site_fract_z
_atom_type_partial_charge
C1    C     C_R   0.656565 0.930116 0.925252 0.143191
C2    C     C_R   0.331219 0.068195 0.029898 0.148531
N1    N     N_R   0.613530 0.956740 0.956480 -0.058887
N2    N     N_R   0.386470 0.043260 0.043520 -0.060606
C3    C     C_R   0.493426 0.069319 0.225513 0.142748
C4    C     C_R   0.463339 0.932062 0.762952 0.148456
N3    N     N_R   0.499750 0.043260 0.156770 -0.059186
N4    N     N_R   0.500250 0.956740 0.843230 -0.061660
C5    C     C_R   0.737181 0.205815 0.168387 0.156235
C6    C     C_R   0.275613 0.766605 0.845526 0.141232
N5    N     N_R   0.656790 0.157020 0.113500 -0.060452
N6    N     N_R   0.343210 0.842980 0.886500 -0.060672
C7    C     C_R   0.465868 0.797742 0.034572 0.079704
C8    C     C_R   0.576793 0.232114 0.006870 0.058317
N7    N     N_R   0.456490 0.842980 0.999750 -0.062898
N8    N     N_R   0.543510 0.157020 0.000250 -0.060752
C9    C     C_R   0.666560 0.194250 0.236272 -0.200762
C10   C     C_R   0.344535 0.765916 0.776958 -0.185626
H1    H     H_    0.651979 0.199040 0.284872 0.121243
H2    H     H_    0.369590 0.738680 0.742282 0.122939
N9    N     N_R   0.613500 0.157010 0.156770 -0.052606
N10   N     N_R   0.386500 0.842990 0.843230 -0.050215
C11   C     C_R   0.540459 0.803843 0.970567 -0.183432
C12   C     C_R   0.511578 0.234313 0.078801 -0.164411
H3    H     H_    0.582101 0.796361 0.948835 0.117488
H4    H     H_    0.505120 0.262066 0.131682 0.118929
N11   N     N_R   0.499770 0.842990 0.956480 -0.050785
N12   N     N_R   0.500230 0.157010 0.043520 -0.049541
C13   C     C_R   0.426486 0.930613 0.156982 -0.173593
C14   C     C_R   0.529306 0.071544 0.835189 -0.171796
H5    H     H_    0.377014 0.868800 0.132645 0.130302
H6    H     H_    0.553595 0.135938 0.851316 0.130810
N13   N     N_R   0.456470 0.956710 0.113500 -0.052945
N14   N     N_R   0.543530 0.043290 0.886500 -0.051994
C15   C     C_R   0.727851 0.068631 0.997993 -0.185668
C16   C     C_R   0.263943 0.928840 0.955590 -0.194404
H7    H     H_    0.767681 0.129814 0.011094 0.117213
H8    H     H_    0.215836 0.864751 0.913983 0.138194
N15   N     N_R   0.656800 0.043290 0.999750 -0.050854
N16   N     N_R   0.343200 0.956710 0.000250 -0.054261
C17   C     C_R   0.730284 0.999532 0.954774 0.073271
C18   C     C_R   0.255380 0.997278 0.971959 0.058883
C19   C     C_R   0.451234 0.999432 0.228148 0.064282
C20   C     C_R   0.477968 0.003121 0.757991 0.048809
C21   C     C_R   0.743867 0.223404 0.244712 0.072878
C22   C     C_R   0.274550 0.718776 0.775488 0.059909
C23   C     C_R   0.520633 0.775889 0.019772 0.048332
C24   C     C_R   0.556373 0.280704 0.054750 0.035122
Ni1   Ni    Ni4+2 0.500010 0.900760 0.900750 0.194771
Ni2   Ni    Ni4+2 0.499990 0.099240 0.099250 0.194359
Ni3   Ni    Ni4+2 0.599260 0.099260 0.000000 0.210122
Ni4   Ni    Ni4+2 0.400740 0.900740 0.000000 0.199198
C25   C     C_3   0.611582 0.585381 0.169224 0.197854
C26   C     C_3   0.581190 0.555305 0.019262 0.199611
C27   C     C_3   0.666873 0.644591 0.149949 -0.218297
C28   C     C_3   0.526370 0.497494 0.038719 -0.209475
H9    H     H_    0.723889 0.706039 0.195581 0.127134
H10   H     H_    0.468766 0.436517 0.992893 0.125149
H11   H     H_    0.709805 0.564241 0.072164 0.127538
H12   H     H_    0.482984 0.576301 0.115982 0.128514
C29   C     C_1   0.549855 0.730240 0.047695 -0.027080
C30   C     C_1   0.584376 0.366496 0.083049 -0.026918
C31   C     C_3   0.534040 0.573169 0.106124 -0.213034
C32   C     C_3   0.658894 0.567704 0.082083 -0.213672
C33   C     C_3   0.588839 0.630493 0.085931 0.134456
C34   C     C_3   0.604012 0.510552 0.102299 0.132965
C35   C     C_1   0.571275 0.688701 0.068497 -0.066309
C36   C     C_1   0.599682 0.435362 0.098407 -0.067001
C37   C     C_3   0.490358 0.038191 0.532330 0.058882
C38   C     C_3   0.333291 0.967531 0.425735 0.057413
C39   C     C_3   0.443438 0.957534 0.448488 -0.273863
C40   C     C_3   0.380520 0.048762 0.510979 -0.281516
H13   H     H_    0.469366 0.920575 0.422476 0.138204
H14   H     H_    0.354895 0.085699 0.537600 0.138169
C41   C     C_1   0.425763 0.996951 0.286344 -0.049320
C42   C     C_1   0.452009 0.006458 0.685761 -0.043519
C43   C     C_3   0.453900 0.080779 0.494965 0.132164
C44   C     C_3   0.370163 0.925075 0.463723 0.129608
C45   C     C_3   0.406143 0.000149 0.410942 0.069714
C46   C     C_3   0.417889 0.005669 0.547902 0.069075
C47   C     C_1   0.410954 0.997082 0.339731 -0.053188
C48   C     C_1   0.432964 0.007325 0.623756 -0.050149
C49   C     C_3   0.000344 0.453781 0.475797 -0.280018
C50   C     C_3   0.046421 0.398233 0.577506 -0.286001
C51   C     C_3   0.011679 0.487633 0.562943 0.064086
C52   C     C_3   0.034157 0.363517 0.488835 0.055261
H15   H     H_    0.980755 0.476416 0.434207 0.132393
H16   H     H_    0.066489 0.376422 0.619701 0.137808
C53   C     C_1   0.217904 0.632706 0.717153 -0.042879
C54   C     C_1   0.816508 0.265711 0.319901 -0.047320
C55   C     C_3   0.080874 0.452982 0.505711 0.140393
C56   C     C_3   0.964979 0.398664 0.546450 0.136198
C57   C     C_3   0.092427 0.487696 0.593084 0.067169
C58   C     C_3   0.953993 0.364156 0.459376 0.066700
C59   C     C_1   0.164463 0.563572 0.663487 -0.055165
C60   C     C_1   0.878270 0.305791 0.383448 -0.049968
C61   C     C_3   0.014899 0.991177 0.972595 -0.211090
C62   C     C_3   0.940983 0.005461 0.844860 -0.219815
C63   C     C_3   0.000991 0.063612 0.978225 0.112713
C64   C     C_3   0.955915 0.932746 0.839503 0.106267
H17   H     H_    0.046109 0.985893 0.025345 0.131647
H18   H     H_    0.909074 0.010656 0.792368 0.131683
H19   H     H_    0.074907 0.127531 0.923276 0.130161
H20   H     H_    0.882551 0.869116 0.894802 0.130994
C65   C     C_1   0.791466 0.001868 0.932339 -0.047150
C66   C     C_1   0.179892 0.994051 0.941615 -0.044387
C67   C     C_3   0.926361 0.927399 0.901482 -0.216475
C68   C     C_3   0.030716 0.069389 0.916470 -0.222005
C69   C     C_3   0.913311 0.000918 0.908227 0.149193
C70   C     C_3   0.043347 0.995670 0.909728 0.147321
C71   C     C_1   0.844927 0.002419 0.917257 -0.061789
C72   C     C_1   0.117151 0.993572 0.921814 -0.058062
C73   C     C_3   0.619530 0.844054 0.852714 -0.470060
C74   C     C_3   0.621384 0.845706 0.776766 -0.237638
C75   C     C_3   0.571713 0.757504 0.701798 -0.936344
H21   H     H_    0.598978 0.719619 0.712175 0.266990
H22   H     H_    0.507186 0.725901 0.688744 0.257379
H23   H     H_    0.572272 0.760925 0.647552 0.253674
H24   H     H_    0.596819 0.884605 0.764018 0.196181
H25   H     H_    0.684991 0.873084 0.786954 0.208450
H26   H     H_    0.653013 0.813523 0.870652 0.185724
H27   H     H_    0.554432 0.806090 0.835598 0.194261
C76   C     C_3   0.342984 0.151432 0.083190 -0.450328
C77   C     C_3   0.326617 0.195335 0.035655 -0.226751
C78   C     C_3   0.351455 0.284850 0.093247 -0.924813
H28   H     H_    0.316512 0.284942 0.127432 0.266278
H29   H     H_    0.418027 0.322444 0.137528 0.257040
H30   H     H_    0.337969 0.314512 0.057114 0.248394
H31   H     H_    0.360028 0.196136 0.000092 0.204872
H32   H     H_    0.260317 0.160749 0.991188 0.196679
H33   H     H_    0.299055 0.140725 0.107305 0.188194
H34   H     H_    0.404087 0.190377 0.137580 0.192090
C79   C     C_3   0.629066 0.599590 0.254509 -0.447508
C80   C     C_3   0.632516 0.679852 0.306919 -0.239949
C81   C     C_3   0.649788 0.693847 0.392083 -0.904513
H35   H     H_    0.600642 0.640807 0.387567 0.260939
H36   H     H_    0.709685 0.699857 0.424124 0.263265
H37   H     H_    0.651936 0.752317 0.428654 0.247958
H38   H     H_    0.681646 0.734433 0.313220 0.197462
H39   H     H_    0.573117 0.675679 0.276880 0.197604
H40   H     H_    0.579920 0.544975 0.248126 0.191734
H41   H     H_    0.688504 0.603796 0.284346 0.192215
C82   C     C_3   0.563097 0.538357 0.932957 -0.447091
C83   C     C_3   0.558087 0.456492 0.881972 -0.235077
C84   C     C_3   0.539548 0.439213 0.795671 -0.921276
H42   H     H_    0.480279 0.434441 0.763885 0.263275
H43   H     H_    0.589098 0.490030 0.798112 0.261918
H44   H     H_    0.535323 0.379132 0.760070 0.249768
H45   H     H_    0.617188 0.460146 0.912034 0.198647
H46   H     H_    0.508935 0.403481 0.877553 0.195873
H47   H     H_    0.504010 0.534668 0.902814 0.192926
H48   H     H_    0.612484 0.591447 0.937738 0.190784
C85   C     C_1   0.576914 0.076083 0.590592 0.028721
N17   N     N_1   0.645081 0.105959 0.636512 -0.091029
C86   C     C_1   0.247555 0.930038 0.365952 0.025662
N18   N     N_1   0.179914 0.900439 0.318765 -0.090305
C87   C     C_3   0.324327 0.836897 0.448654 -0.436296
C88   C     C_3   0.287410 0.769783 0.359161 -0.222985
C89   C     C_3   0.245264 0.682109 0.345917 -0.927568
H49   H     H_    0.290638 0.671740 0.382539 0.260563
H50   H     H_    0.196599 0.673501 0.363934 0.265030
H51   H     H_    0.216836 0.634835 0.280208 0.254412
H52   H     H_    0.241724 0.776861 0.318463 0.203576
H53   H     H_    0.336381 0.776805 0.341693 0.196334
H54   H     H_    0.368298 0.827954 0.489057 0.200782
H55   H     H_    0.274963 0.831317 0.465278 0.191096
C90   C     C_3   0.500586 0.168119 0.508369 -0.425432
C91   C     C_3   0.536706 0.236850 0.596916 -0.237222
C92   C     C_3   0.584842 0.323298 0.609590 -0.919410
H56   H     H_    0.636081 0.328391 0.596165 0.261225
H57   H     H_    0.544095 0.334825 0.568938 0.263306
H58   H     H_    0.610769 0.371954 0.674189 0.252575
H59   H     H_    0.486593 0.233731 0.611781 0.194549
H60   H     H_    0.578394 0.227950 0.639743 0.205546
H61   H     H_    0.550394 0.172315 0.492702 0.192152
H62   H     H_    0.457725 0.176640 0.466196 0.193153
C93   C     C_1   0.998896 0.556431 0.602354 0.013972
N19   N     N_1   0.988805 0.610592 0.633358 -0.090899
C94   C     C_1   0.044572 0.293734 0.447091 0.032265
N20   N     N_1   0.052786 0.238705 0.414112 -0.086926
C95   C     C_3   0.896320 0.365431 0.566240 -0.425252
C96   C     C_3   0.927821 0.407626 0.658859 -0.242876
C97   C     C_3   0.858374 0.375309 0.677742 -0.905482
H63   H     H_    0.810726 0.388960 0.651215 0.259571
H64   H     H_    0.830171 0.306730 0.652145 0.263172
H65   H     H_    0.882863 0.406720 0.745108 0.251024
H66   H     H_    0.975344 0.394739 0.687442 0.197070
H67   H     H_    0.955873 0.476445 0.686604 0.204772
H68   H     H_    0.847657 0.376835 0.537232 0.191512
H69   H     H_    0.869827 0.296829 0.539327 0.192424
C98   C     C_3   0.147809 0.485902 0.483862 -0.433948
C99   C     C_3   0.113705 0.444871 0.390890 -0.239313
C100  C     C_3   0.180943 0.478675 0.369861 -0.909823
H70   H     H_    0.208368 0.547275 0.396512 0.267473
H71   H     H_    0.229564 0.465197 0.393965 0.263973
H72   H     H_    0.154528 0.448284 0.302310 0.253306
H73   H     H_    0.086280 0.376042 0.362283 0.207343
H74   H     H_    0.065186 0.457603 0.364450 0.200471
H75   H     H_    0.174351 0.554454 0.511641 0.198795
H76   H     H_    0.196680 0.473759 0.510659 0.192595
C101  C     C_1   0.025692 0.135967 0.055089 0.029429
N21   N     N_1   0.045099 0.192975 0.115660 -0.089169
C102  C     C_1   0.932654 0.860693 0.763329 0.030011
N22   N     N_1   0.914332 0.803837 0.703236 -0.083578
C103  C     C_3   0.508471 0.155818 0.275600 -0.467263
C104  C     C_3   0.431278 0.155530 0.275814 -0.239321
C105  C     C_3   0.446353 0.244313 0.315633 -0.942897
H77   H     H_    0.494937 0.281375 0.380730 0.267428
H78   H     H_    0.465397 0.275968 0.283006 0.259061
H79   H     H_    0.389158 0.241977 0.313379 0.254722
H80   H     H_    0.379733 0.117680 0.212226 0.196542
H81   H     H_    0.412940 0.127726 0.311229 0.203838
H82   H     H_    0.556566 0.185232 0.339626 0.184595
H83   H     H_    0.530710 0.194244 0.249455 0.195055
C106  C     C_3   0.433338 0.848816 0.691705 -0.449915
C107  C     C_3   0.341926 0.805215 0.631254 -0.222322
C108  C     C_3   0.310935 0.717137 0.564430 -0.954976
H84   H     H_    0.347806 0.719069 0.532276 0.267560
H85   H     H_    0.315042 0.677478 0.591322 0.261595
H86   H     H_    0.246057 0.688851 0.519171 0.253977
H87   H     H_    0.304908 0.802003 0.663120 0.207858
H88   H     H_    0.332033 0.841500 0.601925 0.192997
H89   H     H_    0.468470 0.859314 0.658714 0.187106
H90   H     H_    0.448347 0.809906 0.713966 0.192932
C109  C     C_3   0.803206 0.250279 0.151885 -0.454112
C110  C     C_3   0.850779 0.345857 0.208392 -0.250232
C111  C     C_3   0.909976 0.388852 0.183096 -0.918865
H91   H     H_    0.954759 0.367379 0.186055 0.264472
H92   H     H_    0.875969 0.374882 0.119855 0.270908
H93   H     H_    0.944093 0.457628 0.225449 0.247994
H94   H     H_    0.807187 0.368961 0.205842 0.204582
H95   H     H_    0.887305 0.363966 0.272546 0.199480
H96   H     H_    0.846160 0.226434 0.158236 0.194811
H97   H     H_    0.773078 0.237923 0.088868 0.200290
C112  C     C_3   0.233041 0.730957 0.886240 -0.452381
C113  C     C_3   0.139412 0.687994 0.837047 -0.248017
C114  C     C_3   0.099031 0.668974 0.887196 -0.917459
H98   H     H_    0.114903 0.628171 0.906564 0.264410
H99   H     H_    0.119502 0.727958 0.942266 0.262049
H100  H     H_    0.031440 0.636056 0.849405 0.252620
H101  H     H_    0.121814 0.727857 0.817496 0.199891
H102  H     H_    0.114937 0.628033 0.781108 0.205779
H103  H     H_    0.249159 0.684550 0.892633 0.191756
H104  H     H_    0.256544 0.781398 0.949307 0.195365
C115  C     C_1   0.414383 0.761220 0.064123 -0.006907
N23   N     N_1   0.373006 0.730254 0.087156 -0.099440
C116  C     C_1   0.646395 0.265108 0.995060 -0.005789
N24   N     N_1   0.702299 0.291741 0.985599 -0.097782

loop_
_geom_bond_atom_site_label_1
_geom_bond_atom_site_label_2
_geom_bond_distance
_ccdc_geom_bond_type
N8    N12   1.390847 A    
C81   H37   1.110410 S    
N15   Ni3   1.856184 S    
C102  N22   1.157121 T    
C31   C33   1.538529 S    
C64   C70   1.526351 S    
C87   C88   1.532592 S    
N6    N10   1.391009 A    
C76   H34   1.100281 S    
C38   C44   1.541551 S    
C67   C69   1.539483 S    
C92   H56   1.111081 S    
C16   C18   1.367226 A    
N8    Ni3   1.856082 S    
C106  C107  1.535280 S    
C106  H90   1.099552 S    
C39   C45   1.544032 S    
C74   C75   1.527534 S    
N1    Ni1   1.854608 S    
C95   H68   1.111395 S    
C81   H35   1.110925 S    
C26   C33   1.530121 S    
C66   C72   1.187611 T    
C95   C96   1.532763 S    
C38   C40   1.555354 S    
C108  H86   1.110097 S    
C5    C21   1.387781 A    
C63   C68   1.539409 S    
C79   H41   1.111300 S    
C40   C43   1.553973 S    
C78   H28   1.110904 S    
C17   C65   1.410719 S    
C77   H31   1.109071 S    
H12   C31   1.110306 S    
C109  H97   1.106755 S    
C28   C31   1.543346 S    
C15   H7    1.073008 S    
C98   H75   1.108825 S    
C73   C74   1.537188 S    
C56   C95   1.528713 S    
C69   C71   1.435623 S    
C80   H39   1.111697 S    
C15   N15   1.341754 A    
C64   C102  1.466339 S    
C44   C46   1.537461 S    
C34   C36   1.439065 S    
C82   C83   1.532901 S    
C63   C69   1.527501 S    
C114  H99   1.110949 S    
C13   N13   1.337271 A    
C114  H98   1.110933 S    
C62   C68   1.562675 S    
C113  C114  1.525166 S    
C20   C42   1.410470 S    
C101  N21   1.157172 T    
C113  H102  1.109225 S    
C37   C39   1.535701 S    
C111  H91   1.111144 S    
C107  H87   1.108421 S    
C83   H46   1.111627 S    
C52   C58   1.533279 S    
C84   H43   1.110861 S    
C96   C97   1.525888 S    
N12   Ni2   1.857984 S    
C104  H80   1.109426 S    
C73   H27   1.110654 S    
N2    N16   1.383204 A    
C28   H10   1.110868 S    
C33   C35   1.440929 S    
C6    C22   1.373357 A    
C105  H79   1.110357 S    
C112  C113  1.537105 S    
C89   H50   1.110995 S    
H19   C68   1.110390 S    
C99   H74   1.111517 S    
C74   H24   1.109541 S    
C49   C51   1.534842 S    
C88   H53   1.111449 S    
C96   H66   1.111463 S    
C100  H72   1.110438 S    
C82   H47   1.111399 S    
C26   C82   1.528901 S    
C65   C71   1.187951 T    
C103  H82   1.111313 S    
C57   C59   1.443159 S    
C62   C69   1.540155 S    
C4    C20   1.384476 A    
C115  N23   1.157584 T    
C13   C19   1.365791 A    
C92   H57   1.110955 S    
C14   C20   1.366330 A    
C28   C34   1.540927 S    
C1    C73   1.513665 S    
C10   C22   1.364615 A    
C56   C58   1.535848 S    
N9    Ni2   1.854261 S    
C27   C33   1.540707 S    
C51   C56   1.533964 S    
C84   H42   1.110839 S    
C87   H55   1.111028 S    
C107  H88   1.108484 S    
C105  H77   1.111122 S    
C25   C27   1.552374 S    
C19   C41   1.408063 S    
C91   H59   1.111541 S    
C9    C21   1.373005 A    
C26   C28   1.533655 S    
C89   H51   1.110299 S    
C11   C23   1.374892 A    
N3    N13   1.383206 A    
C38   C86   1.466425 S    
C12   C24   1.366815 A    
C50   H16   1.109991 S    
C76   C77   1.537203 S    
C25   C79   1.526007 S    
C98   H76   1.111128 S    
C40   H14   1.110040 S    
C61   C63   1.531952 S    
C97   H65   1.110403 S    
C42   C48   1.187514 T    
C80   H38   1.111680 S    
C7    C23   1.378882 A    
C14   N14   1.335929 A    
C104  C105  1.527032 S    
C41   C47   1.186261 T    
C8    C24   1.366854 A    
C75   H22   1.109876 S    
C108  H84   1.110132 S    
N16   Ni4   1.856186 S    
C49   C58   1.544869 S    
C55   C98   1.527666 S    
N5    N9    1.391009 A    
C37   C85   1.469011 S    
C98   C99   1.533334 S    
N2    Ni2   1.854608 S    
N13   Ni4   1.854586 S    
C32   C34   1.537746 S    
C113  H101  1.110444 S    
C53   C59   1.191224 T    
C100  H70   1.110052 S    
C91   H60   1.110576 S    
C97   H63   1.111031 S    
C83   H45   1.111661 S    
C21   C54   1.414973 S    
C78   H29   1.110203 S    
C22   C53   1.416672 S    
C55   C57   1.537423 S    
C5    N5    1.345971 A    
C95   H69   1.111285 S    
C29   C35   1.190818 T    
C44   C87   1.528792 S    
N7    N11   1.390850 A    
C89   H49   1.110275 S    
C51   C93   1.469367 S    
C16   N16   1.336482 A    
C4    C106  1.500538 S    
C75   H23   1.110399 S    
C61   H17   1.110997 S    
C27   C32   1.560090 S    
C111  H93   1.110488 S    
C100  H71   1.110783 S    
C109  C110  1.537155 S    
N14   Ni3   1.854588 S    
C43   C45   1.536065 S    
C77   H32   1.110219 S    
C27   H9    1.109911 S    
N4    N14   1.383206 A    
N7    Ni4   1.856082 S    
C107  C108  1.524452 S    
C58   C60   1.440369 S    
C25   C34   1.528937 S    
C18   C66   1.410511 S    
C112  H103  1.111874 S    
H20   C67   1.110682 S    
C6    N6    1.347487 A    
C88   H52   1.110361 S    
N10   Ni1   1.854261 S    
C46   C48   1.436439 S    
C82   H48   1.111309 S    
C111  H92   1.110673 S    
C103  H83   1.110629 S    
C93   N19   1.157018 T    
C11   N11   1.342005 A    
C7    N7    1.343685 A    
C88   C89   1.525643 S    
C92   H58   1.110122 S    
C8    N8    1.341371 A    
C43   C90   1.530096 S    
C110  H94   1.112282 S    
C87   H54   1.110784 S    
C24   C30   1.415165 S    
C90   C91   1.532037 S    
C84   H44   1.110365 S    
C3    N3    1.345920 A    
C8    C116  1.440538 S    
C1    C17   1.375986 A    
C81   H36   1.110913 S    
C103  C104  1.536984 S    
C91   C92   1.525910 S    
C64   C67   1.539711 S    
C76   H33   1.112001 S    
C38   C45   1.531483 S    
C10   N10   1.342446 A    
C79   H40   1.111473 S    
C12   N12   1.343695 A    
N3    Ni2   1.858107 S    
C50   C52   1.556638 S    
C83   C84   1.525533 S    
C106  H89   1.112166 S    
C49   H15   1.110861 S    
C23   C29   1.415609 S    
C4    N4    1.352431 A    
C116  N24   1.157190 T    
C45   C47   1.432962 S    
C54   C60   1.190593 T    
C80   C81   1.525586 S    
C108  H85   1.110157 S    
C49   C55   1.542349 S    
N6    Ni4   1.854376 S    
C62   C64   1.549415 S    
C63   C101  1.468084 S    
C30   C36   1.189959 T    
C52   C55   1.539687 S    
C109  H96   1.111073 S    
C99   C100  1.525122 S    
C2    C76   1.503320 S    
C97   H64   1.110937 S    
C40   C46   1.546698 S    
C62   H18   1.110150 S    
C99   H73   1.110749 S    
C14   H6    1.075957 S    
C61   C70   1.539581 S    
C25   C31   1.543160 S    
C12   H4    1.074038 S    
C37   C43   1.532865 S    
C75   H21   1.110861 S    
C79   C80   1.531719 S    
C26   C32   1.541101 S    
C2    C18   1.383107 A    
C78   H30   1.110419 S    
C110  H95   1.107830 S    
C2    N2    1.352279 A    
C16   H8    1.072423 S    
C52   C94   1.466709 S    
C9    H1    1.075069 S    
C68   C70   1.539004 S    
C7    C115  1.438196 S    
C90   H61   1.111540 S    
C10   H2    1.073816 S    
C50   C57   1.547533 S    
C11   H3    1.074716 S    
C104  H81   1.107228 S    
C3    C19   1.377624 A    
C15   C17   1.366935 A    
C70   C72   1.434732 S    
C112  H104  1.110600 S    
N5    Ni3   1.854374 S    
C3    C103  1.513648 S    
C94   N20   1.156963 T    
C61   C67   1.545774 S    
H11   C32   1.110055 S    
C51   C57   1.538051 S    
C73   H26   1.111153 S    
C13   H5    1.076629 S    
C110  C111  1.526331 S    
C114  H100  1.110586 S    
C39   H13   1.110788 S    
C86   N18   1.156962 T    
C105  H78   1.110139 S    
C6    C112  1.509254 S    
C77   C78   1.526271 S    
C37   C46   1.534429 S    
C5    C109  1.506276 S    
C50   C56   1.557312 S    
C1    N1    1.345073 A    
C85   N17   1.156983 T    
C96   H67   1.110814 S    
N4    Ni1   1.858111 S    
C39   C44   1.543739 S    
C74   H25   1.107510 S    
N1    N15   1.383206 A    
N11   Ni1   1.857979 S    
C90   H62   1.111322 S    
C9    N9    1.339594 A    
