data_mof_unit_22314.cif
_audit_creation_date              2013-03-05T15:44:59-0500
_audit_creation_method            fapswitch 2.2
_symmetry_space_group_name_H-M    P1
_symmetry_Int_Tables_number       1
_space_group_crystal_system       triclinic
_cell_length_a                    17.40491
_cell_length_b                    24.373713
_cell_length_c                    15.030692
_cell_angle_alpha                 90.84452
_cell_angle_beta                  125.591257
_cell_angle_gamma                 89.21064
_cell_volume                      5184.51578834

loop_
_atom_site_label
_atom_site_type_symbol
_atom_site_description
_atom_site_fract_x
_atom_site_fract_y
_atom_site_fract_z
_atom_type_partial_charge
C1    C     C_R   0.342938 0.351377 0.907392 -0.061785
C2    C     C_R   0.646533 0.347290 0.089454 -0.102194
C3    C     C_R   0.814890 0.871070 0.911624 -0.057588
C4    C     C_R   0.189085 0.874976 0.091550 -0.053601
H1    H     H_    0.298108 0.337752 0.823151 0.080051
H2    H     H_    0.689014 0.335090 0.174166 0.131076
H3    H     H_    0.758888 0.859885 0.828660 0.102255
H4    H     H_    0.245185 0.868304 0.176555 0.151372
N1    N     N_R   0.395440 0.396300 0.944370 -0.049464
N2    N     N_R   0.604560 0.396300 0.055630 -0.052897
N3    N     N_R   0.895440 0.896300 0.944370 -0.061608
N4    N     N_R   0.104560 0.896300 0.055630 -0.053505
C5    C     C_R   0.440235 0.650741 0.091598 -0.043010
C6    C     C_R   0.565055 0.648233 0.909411 -0.085224
C7    C     C_R   0.903857 0.125931 0.092418 -0.107422
C8    C     C_R   0.096724 0.126114 0.910113 0.055067
H5    H     H_    0.484044 0.663149 0.176352 0.171922
H6    H     H_    0.525514 0.660931 0.825006 0.160425
H7    H     H_    0.933037 0.129153 0.177518 0.160669
H8    H     H_    0.067278 0.138305 0.827400 0.104302
N5    N     N_R   0.449890 0.602500 0.055780 -0.058202
N6    N     N_R   0.550110 0.602500 0.944220 -0.055556
N7    N     N_R   0.949890 0.102500 0.055780 -0.054699
N8    N     N_R   0.050110 0.102500 0.944220 -0.057293
C9    C     C_R   0.489393 0.454614 0.258888 0.591587
C10   C     C_R   0.451138 0.453969 0.696540 0.615608
C11   C     C_R   0.056519 0.954944 0.305600 0.532767
C12   C     C_R   0.967138 0.954936 0.703842 0.613952
N9    N     N_R   0.525090 0.470990 0.205640 -0.111620
N10   N     N_R   0.474910 0.470990 0.794360 -0.102542
N11   N     N_R   0.025090 0.970990 0.205640 -0.098926
N12   N     N_R   0.974910 0.970990 0.794360 -0.108375
C13   C     C_R   0.230135 0.544995 0.733842 0.608445
C14   C     C_R   0.755711 0.544529 0.302363 0.579502
C15   C     C_R   0.735788 0.044548 0.706945 0.592016
C16   C     C_R   0.253560 0.044992 0.303662 0.565467
N13   N     N_R   0.320240 0.527820 0.794510 -0.100420
N14   N     N_R   0.679760 0.527820 0.205490 -0.097768
N15   N     N_R   0.820240 0.027820 0.794510 -0.099784
N16   N     N_R   0.179760 0.027820 0.205490 -0.103091
C17   C     C_R   0.481715 0.545996 0.250344 -0.166728
C18   C     C_R   0.454314 0.544936 0.699047 -0.186650
C19   C     C_R   0.050014 0.045885 0.302527 -0.131805
C20   C     C_R   0.971657 0.046006 0.709806 -0.166272
H9    H     H_    0.473091 0.588692 0.261145 0.189323
H10   H     H_    0.443886 0.587600 0.677223 0.193603
H11   H     H_    0.059645 0.088464 0.327914 0.166939
H12   H     H_    0.965222 0.088245 0.685610 0.143739
N17   N     N_R   0.524580 0.527810 0.205160 -0.082037
N18   N     N_R   0.475420 0.527810 0.794840 -0.084321
N19   N     N_R   0.024580 0.027810 0.205160 -0.090611
N20   N     N_R   0.975420 0.027810 0.794840 -0.073932
C21   C     C_R   0.232049 0.453001 0.738068 -0.170166
C22   C     C_R   0.753104 0.453362 0.301943 -0.232312
C23   C     C_R   0.737595 0.952690 0.710927 -0.162330
C24   C     C_R   0.251539 0.953604 0.302515 -0.093369
H13   H     H_    0.210569 0.410621 0.720193 0.141876
H14   H     H_    0.761066 0.411285 0.327094 0.191574
H15   H     H_    0.719439 0.910222 0.687093 0.121883
H16   H     H_    0.256597 0.912328 0.330945 0.175787
N21   N     N_R   0.320750 0.470990 0.794990 -0.099301
N22   N     N_R   0.679250 0.470990 0.205010 -0.090923
N23   N     N_R   0.820750 0.970990 0.794990 -0.089340
N24   N     N_R   0.179250 0.970990 0.205010 -0.096318
C25   C     C_R   0.353238 0.651889 0.910300 -0.107239
C26   C     C_R   0.652833 0.649273 0.092282 -0.180340
C27   C     C_R   0.812792 0.128118 0.909881 -0.123975
C28   C     C_R   0.188761 0.125148 0.093368 -0.145919
H17   H     H_    0.322010 0.667115 0.828916 0.157362
H18   H     H_    0.689174 0.665093 0.174698 0.154240
H19   H     H_    0.756760 0.136291 0.826334 0.154069
H20   H     H_    0.243900 0.134921 0.177181 0.137257
N25   N     N_R   0.393580 0.602500 0.942610 -0.048203
N26   N     N_R   0.606420 0.602500 0.057390 -0.042841
N27   N     N_R   0.893580 0.102500 0.942610 -0.042838
N28   N     N_R   0.106420 0.102500 0.057390 -0.045797
C29   C     C_R   0.435595 0.350081 0.089921 0.013944
C30   C     C_R   0.552805 0.346502 0.907878 -0.114309
C31   C     C_R   0.906211 0.875587 0.094759 -0.137977
C32   C     C_R   0.099584 0.876432 0.909438 -0.135680
H21   H     H_    0.475715 0.334117 0.171742 0.164870
H22   H     H_    0.504417 0.332507 0.824572 0.147007
H23   H     H_    0.933415 0.871335 0.179588 0.160836
H24   H     H_    0.074929 0.871850 0.826199 0.168420
N29   N     N_R   0.451750 0.396300 0.057540 -0.059633
N30   N     N_R   0.548250 0.396300 0.942460 -0.048751
N31   N     N_R   0.951750 0.896300 0.057540 -0.043743
N32   N     N_R   0.048250 0.896300 0.942460 -0.059808
C33   C     C_R   0.366934 0.322792 0.997473 0.123319
C34   C     C_R   0.610892 0.313927 0.998171 0.092271
C35   C     C_R   0.820706 0.858649 0.005507 0.160720
C36   C     C_R   0.189392 0.863783 0.000799 0.129919
C37   C     C_R   0.380525 0.683257 0.001820 0.074633
C38   C     C_R   0.629534 0.677982 0.001609 0.092437
C39   C     C_R   0.815792 0.142296 0.002524 0.097197
C40   C     C_R   0.183798 0.140226 0.002306 0.123076
C41   C     C_R   0.453634 0.500730 0.280497 -0.025763
C42   C     C_R   0.434424 0.499475 0.631981 -0.060068
C43   C     C_R   0.070495 0.001336 0.367090 -0.016916
C44   C     C_R   0.971631 0.000755 0.655893 -0.030916
C45   C     C_R   0.173488 0.498414 0.699447 0.097096
C46   C     C_R   0.799675 0.498815 0.367364 0.055816
C47   C     C_R   0.682163 0.997427 0.655357 0.056430
C48   C     C_R   0.298556 0.998890 0.367003 0.059346
Ni1   Ni    Ni4+2 0.435420 0.434250 0.870220 0.210019
Ni2   Ni    Ni4+2 0.564580 0.434250 0.129780 0.213972
Ni3   Ni    Ni4+2 0.935420 0.934250 0.870220 0.206982
Ni4   Ni    Ni4+2 0.064580 0.934250 0.129780 0.257312
Ni5   Ni    Ni4+2 0.563400 0.564580 0.128670 0.246206
Ni6   Ni    Ni4+2 0.436600 0.564580 0.871330 0.250858
Ni7   Ni    Ni4+2 0.063400 0.064580 0.128670 0.257399
Ni8   Ni    Ni4+2 0.936600 0.064580 0.871330 0.273695
C49   C     C_2   0.919416 0.457106 0.546781 0.471343
C50   C     C_2   0.018458 0.467602 0.641672 0.450183
C51   C     C_2   0.434904 0.958827 0.531184 0.425820
C52   C     C_2   0.530000 0.979179 0.614640 0.454742
C53   C     C_2   0.870846 0.500934 0.485857 -0.344759
C54   C     C_2   0.072675 0.494786 0.620457 -0.421439
C55   C     C_2   0.369258 0.998280 0.484567 -0.340366
C56   C     C_2   0.581546 0.992249 0.578126 -0.351112
H25   H     H_    0.897512 0.541394 0.521077 0.123430
H26   H     H_    0.043234 0.512339 0.540500 0.134127
H27   H     H_    0.380139 0.036075 0.528959 0.154118
H28   H     H_    0.551488 0.991963 0.491261 0.167160
C57   C     C_R   0.280160 0.762766 0.901339 -0.276162
C58   C     C_R   0.763964 0.736266 0.092111 -0.220199
C59   C     C_R   0.660781 0.189218 0.902161 -0.222687
C60   C     C_R   0.317878 0.179604 0.017927 -0.150341
H29   H     H_    0.248407 0.740960 0.824617 0.155494
H30   H     H_    0.804438 0.704373 0.151805 0.150272
H31   H     H_    0.644665 0.174624 0.824946 0.141679
H32   H     H_    0.349586 0.139297 0.030485 0.185428
C61   C     C_R   0.606075 0.231735 0.898508 -0.182080
C62   C     C_R   0.362309 0.225117 0.015189 -0.148215
C63   C     C_R   0.236043 0.810173 0.899788 -0.163054
C64   C     C_R   0.811108 0.780771 0.094516 -0.194412
H33   H     H_    0.554383 0.249714 0.819746 0.145289
H34   H     H_    0.428970 0.220378 0.025566 0.203167
H35   H     H_    0.173480 0.822132 0.821634 0.154105
H36   H     H_    0.886974 0.781302 0.154971 0.159376
C65   C     C_R   0.627317 0.254863 0.995929 -0.053590
C66   C     C_R   0.319225 0.276415 0.996515 -0.141647
C67   C     C_R   0.263157 0.835263 0.998336 -0.038825
C68   C     C_R   0.763086 0.820787 0.014076 -0.091120
C69   C     C_R   0.685125 0.225308 0.093657 0.163268
C70   C     C_R   0.231442 0.283702 0.979425 0.208554
C71   C     C_R   0.352094 0.822124 0.095208 0.190720
C72   C     C_R   0.664671 0.819269 0.936594 0.201868
C73   C     C_R   0.399095 0.774376 0.096375 0.506393
C74   C     C_R   0.616868 0.771916 0.930240 0.467393
C75   C     C_R   0.752192 0.188889 0.100872 0.508221
C76   C     C_R   0.188932 0.238158 0.987009 0.473219
C77   C     C_R   0.355475 0.741136 0.000791 -0.090142
C78   C     C_R   0.668823 0.730052 0.007303 -0.085175
C79   C     C_R   0.741740 0.172340 0.003098 -0.060946
C80   C     C_R   0.231894 0.186558 0.003295 -0.124350
C81   C     C_R   0.377647 0.549903 0.457239 0.211407
C82   C     C_R   0.384116 0.550956 0.367956 0.211467
C83   C     C_R   0.092471 0.017972 0.625815 0.221531
C84   C     C_R   0.117834 0.019079 0.553492 0.231834
C85   C     C_R   0.406703 0.501675 0.336723 -0.003635
C86   C     C_R   0.398434 0.500201 0.515223 0.000830
C87   C     C_R   0.050193 0.002669 0.445198 -0.089522
C88   C     C_R   0.000315 0.000968 0.585794 -0.045763
C89   C     C_R   0.393182 0.452114 0.371021 -0.158799
C90   C     C_R   0.393382 0.451137 0.462494 -0.216525
C91   C     C_R   0.959366 0.986045 0.407619 -0.170660
C92   C     C_R   0.934600 0.984784 0.478492 -0.109673
H37   H     H_    0.390264 0.413257 0.334145 0.207741
H38   H     H_    0.395769 0.411262 0.493225 0.212449
H39   H     H_    0.907853 0.973846 0.323080 0.149516
H40   H     H_    0.864218 0.971924 0.449788 0.155606
N33   N     N_R   0.673579 0.230813 0.181335 0.233747
O1    O     O_R   0.727765 0.203924 0.272151 -0.345438
O2    O     O_R   0.597177 0.253302 0.162287 -0.464326
N34   N     N_R   0.184646 0.336271 0.952446 0.244565
O3    O     O_R   0.229569 0.379794 0.009986 -0.404327
O4    O     O_R   0.094429 0.339742 0.876046 -0.377704
N35   N     N_R   0.395102 0.857220 0.190272 0.237637
O5    O     O_R   0.387627 0.910283 0.179091 -0.389114
O6    O     O_R   0.444777 0.836733 0.288247 -0.334799
N36   N     N_R   0.614564 0.866705 0.871463 0.241094
O7    O     O_R   0.646575 0.915341 0.912324 -0.393596
O8    O     O_R   0.530889 0.862415 0.780201 -0.408519
O9    O     O_3   0.483634 0.759468 0.192386 -0.581037
C93   C     C_3   0.558400 0.775023 0.186705 -0.185022
H41   H     H_    0.552665 0.818783 0.162899 0.138100
H42   H     H_    0.562447 0.747706 0.129850 0.101847
H43   H     H_    0.625785 0.770255 0.268952 0.184816
O10   O     O_3   0.522537 0.765338 0.845485 -0.592484
C94   C     C_3   0.467680 0.779301 0.883634 -0.129901
H44   H     H_    0.485236 0.820707 0.922928 0.143010
H45   H     H_    0.476087 0.747807 0.940956 0.101138
H46   H     H_    0.392269 0.780019 0.812830 0.178187
O11   O     O_3   0.826399 0.169971 0.201912 -0.586382
C95   C     C_3   0.892884 0.212734 0.257512 -0.217461
H47   H     H_    0.863834 0.247756 0.277703 0.156180
H48   H     H_    0.918325 0.227731 0.209300 0.098658
H49   H     H_    0.955009 0.196471 0.335729 0.178970
O12   O     O_3   0.102945 0.242936 0.972765 -0.587828
C96   C     C_3   0.119247 0.261183 0.071942 -0.142376
H50   H     H_    0.144010 0.304363 0.090540 0.158672
H51   H     H_    0.170669 0.234405 0.141733 0.100316
H52   H     H_    0.051583 0.259699 0.063445 0.161737
N37   N     N_R   0.338946 0.596059 0.479529 0.241228
O13   O     O_R   0.269756 0.588830 0.488457 -0.384668
O14   O     O_R   0.377258 0.644266 0.500210 -0.342086
N38   N     N_R   0.357087 0.599279 0.302418 0.244037
O15   O     O_R   0.403444 0.644784 0.344759 -0.338746
O16   O     O_R   0.293019 0.596118 0.197313 -0.384305
N39   N     N_R   0.158741 0.034492 0.738137 0.255018
O17   O     O_R   0.201559 0.081428 0.761876 -0.365976
O18   O     O_R   0.178124 0.002165 0.816964 -0.390850
N40   N     N_R   0.212194 0.033226 0.590762 0.246127
O19   O     O_R   0.284633 0.011893 0.679999 -0.395181
O20   O     O_R   0.226246 0.067798 0.536495 -0.400917
O21   O     O_3   0.504146 0.403291 0.304373 -0.669252
C97   C     C_3   0.600583 0.388867 0.361966 -0.213658
H53   H     H_    0.647088 0.421285 0.422135 0.156061
H54   H     H_    0.620095 0.379979 0.304773 0.140433
H55   H     H_    0.613115 0.350838 0.408394 0.190872
O22   O     O_3   0.431896 0.399939 0.662524 -0.648899
C98   C     C_3   0.342473 0.386370 0.636281 -0.345665
H56   H     H_    0.287508 0.417808 0.583848 0.158595
H57   H     H_    0.346904 0.379482 0.711821 0.153524
H58   H     H_    0.319769 0.347199 0.589448 0.184141
O23   O     O_3   0.084687 0.901105 0.340059 -0.650988
C99   C     C_3   0.158208 0.897827 0.452748 -0.192759
H59   H     H_    0.129831 0.902452 0.502186 0.160718
H60   H     H_    0.215181 0.928060 0.478605 0.148747
H61   H     H_    0.190885 0.856428 0.469456 0.178453
O24   O     O_3   0.948758 0.902717 0.658591 -0.642320
C100  C     C_3   0.871680 0.880164 0.652102 -0.292192
H62   H     H_    0.807498 0.906244 0.601286 0.150948
H63   H     H_    0.888225 0.873228 0.734378 0.143490
H64   H     H_    0.855706 0.839549 0.610891 0.191531
O25   O     O_3   0.203331 0.598741 0.700199 -0.621348
C101  C     C_3   0.126229 0.614432 0.702669 -0.231611
H65   H     H_    0.130318 0.596958 0.773486 0.143840
H66   H     H_    0.058498 0.603548 0.624368 0.148247
H67   H     H_    0.126754 0.659735 0.711121 0.166657
O26   O     O_3   0.766834 0.597637 0.340643 -0.622610
C102  C     C_3   0.846883 0.619705 0.352337 -0.307372
H68   H     H_    0.840730 0.617336 0.274357 0.138667
H69   H     H_    0.913298 0.599088 0.417840 0.145872
H70   H     H_    0.852505 0.663677 0.375372 0.184540
O27   O     O_3   0.722104 0.096354 0.662415 -0.629112
C103  C     C_3   0.626134 0.112141 0.598939 -0.284013
H71   H     H_    0.591155 0.102609 0.639693 0.121912
H72   H     H_    0.588076 0.093349 0.516023 0.166966
H73   H     H_    0.621957 0.157268 0.588276 0.184931
O28   O     O_3   0.257137 0.097242 0.343324 -0.603079
C104  C     C_3   0.348546 0.119718 0.395619 -0.277060
H74   H     H_    0.395801 0.096993 0.379995 0.107879
H75   H     H_    0.383186 0.122871 0.484989 0.173380
H76   H     H_    0.341264 0.162243 0.366194 0.162451
O29   O     O_3   0.880019 0.404868 0.515873 -0.630934
C105  C     C_3   0.948634 0.363941 0.544126 -0.195483
H77   H     H_    0.991870 0.355619 0.633258 0.206539
H78   H     H_    0.994293 0.374792 0.517517 0.113245
H79   H     H_    0.911722 0.325358 0.501086 0.171156
O30   O     O_3   0.057800 0.446207 0.745196 -0.582848
C106  C     C_3   0.993556 0.451783 0.773300 -0.010377
H80   H     H_    0.963220 0.494027 0.757775 0.063775
H81   H     H_    0.032015 0.444272 0.862205 0.197135
H82   H     H_    0.936411 0.420870 0.729149 0.144488
O31   O     O_3   0.426585 0.912868 0.470409 -0.620970
C107  C     C_3   0.459257 0.866262 0.537440 -0.006291
H83   H     H_    0.417063 0.859559 0.570294 0.147980
H84   H     H_    0.536025 0.869043 0.604337 0.144130
H85   H     H_    0.449314 0.829806 0.486794 0.188163
O32   O     O_3   0.570331 0.979169 0.726337 -0.596021
C108  C     C_3   0.505828 0.999277 0.747190 0.046538
H86   H     H_    0.445595 0.970760 0.714838 0.161318
H87   H     H_    0.481278 0.041424 0.714718 0.076242
H88   H     H_    0.542447 0.002497 0.836900 0.192488

loop_
_geom_bond_atom_site_label_1
_geom_bond_atom_site_label_2
_geom_bond_distance
_ccdc_geom_bond_type
C106  H82   1.111296 S    
C20   H12   1.079442 S    
C61   H33   1.080577 S    
O10   C94   1.406687 S    
C23   H15   1.079800 S    
C14   O26   1.378168 S    
N11   Ni4   1.854616 S    
C66   C70   1.403178 A    
C9    O21   1.382100 S    
C98   H56   1.115115 S    
N8    Ni8   1.859757 S    
C3    N3    1.340730 A    
C32   H24   1.065002 S    
C11   O23   1.391896 S    
C55   H27   1.081338 S    
N26   Ni5   1.882761 S    
C31   N31   1.315869 A    
O9    C93   1.410067 S    
C98   H58   1.109057 S    
C83   N39   1.438374 S    
C106  H80   1.114489 S    
N9    N17   1.384919 A    
N33   O1    1.301194 A    
C30   C34   1.380921 A    
C7    H7    1.068736 S    
C101  H67   1.109175 S    
C29   C33   1.364958 A    
N27   Ni8   1.856952 S    
C89   C90   1.373441 A    
C1    H1    1.080334 S    
C45   C54   1.439617 S    
C15   O27   1.389306 S    
C71   C73   1.407691 A    
C81   N37   1.436044 S    
C72   C74   1.401487 A    
C49   C50   1.486881 S    
C3    H3    1.077914 S    
N15   N23   1.385162 A    
C18   C42   1.391129 A    
C7    C39   1.386549 A    
C104  H74   1.116627 S    
C64   C68   1.395598 A    
N40   O20   1.301286 A    
C51   O31   1.389472 S    
N4    Ni4   1.853799 S    
C74   O10   1.382330 S    
N20   Ni8   1.854365 S    
N1    Ni1   1.879579 S    
C102  H68   1.113847 S    
C26   N26   1.319812 A    
C23   C47   1.370150 A    
C25   H17   1.078614 S    
N18   Ni6   1.854365 S    
C108  H88   1.108366 S    
C25   N25   1.332306 A    
C76   O12   1.386420 S    
C3    C35   1.392352 A    
O29   C105  1.411021 S    
C18   H10   1.075841 S    
C75   O11   1.381402 S    
C2    C34   1.385232 A    
C36   C67   1.470682 S    
C73   C77   1.417708 A    
N36   O7    1.300528 A    
N12   N20   1.384951 A    
C17   C41   1.396079 A    
C53   H25   1.086003 S    
C82   C85   1.415232 A    
N1    N29   1.383289 A    
C86   C90   1.399925 A    
C21   N21   1.333335 A    
C64   H36   1.083011 S    
C81   C82   1.411114 A    
N2    N30   1.383290 A    
N31   Ni4   1.851895 S    
O23   C99   1.411049 S    
C25   C37   1.385986 A    
N3    N31   1.383289 A    
O32   C108  1.410221 S    
C102  H69   1.109919 S    
N12   Ni3   1.879818 S    
C23   N23   1.327658 A    
C10   O22   1.378719 S    
N19   Ni7   1.879572 S    
C24   N24   1.329572 A    
C71   N35   1.438886 S    
C108  H87   1.111762 S    
C75   C79   1.424399 A    
C4    N4    1.337379 A    
N21   Ni1   1.848653 S    
C100  H62   1.112170 S    
C12   O24   1.384658 S    
C31   C35   1.364403 A    
C103  H73   1.109133 S    
C4    H4    1.077919 S    
C26   C38   1.374220 A    
C48   C55   1.451277 S    
C4    C36   1.390162 A    
C7    N7    1.327798 A    
C12   C44   1.365465 A    
C39   C79   1.477921 S    
N34   O4    1.300689 A    
N10   N18   1.384951 A    
C58   C64   1.356515 A    
C8    N8    1.325892 A    
C14   N14   1.338044 A    
O25   C101  1.411341 S    
C27   C39   1.401012 A    
C96   H51   1.112965 S    
C2    H2    1.079651 S    
C49   O29   1.393887 S    
C95   H49   1.109371 S    
C60   H32   1.083819 S    
C17   N17   1.336461 A    
C99   H59   1.109972 S    
C42   C86   1.481064 S    
C103  H72   1.110139 S    
N24   Ni4   1.859115 S    
N16   Ni7   1.869794 S    
C59   H31   1.078812 S    
N33   O2    1.300816 A    
C30   N30   1.332804 A    
C9    N9    1.334531 A    
N5    N25   1.383289 A    
C101  H66   1.108910 S    
C8    C40   1.375185 A    
N4    N32   1.383290 A    
C11   N11   1.328302 A    
C94   H44   1.114261 S    
C84   C87   1.399540 A    
C76   C80   1.403897 A    
N25   Ni6   1.856952 S    
C1    N1    1.327130 A    
C24   C48   1.377539 A    
C95   H48   1.113816 S    
C69   N33   1.448264 S    
C58   H30   1.084125 S    
C21   C45   1.378476 A    
C91   C92   1.362850 A    
C104  H75   1.108764 S    
N32   Ni3   1.840821 S    
C21   H13   1.079115 S    
N40   O19   1.301196 A    
O12   C96   1.411406 S    
C91   H39   1.084891 S    
C22   N22   1.335273 A    
N6    Ni6   1.859757 S    
O21   C97   1.411264 S    
N37   O13   1.301497 A    
C13   N13   1.339702 A    
C52   C56   1.339316 D    
C70   N34   1.439342 S    
C28   H20   1.074693 S    
C69   C75   1.410393 A    
O31   C107  1.406381 S    
C33   C66   1.406766 S    
C32   C36   1.387356 A    
C105  H78   1.113705 S    
C94   H45   1.105751 S    
N39   O17   1.301306 A    
C60   C62   1.375605 A    
C62   C66   1.394239 A    
C30   H22   1.077661 S    
C97   H54   1.110664 S    
C83   C84   1.391785 A    
C107  H85   1.109037 S    
C12   N12   1.339411 A    
C87   C91   1.397791 A    
C8    H8    1.077778 S    
C102  H70   1.109329 S    
C84   N40   1.438378 S    
C89   H37   1.076968 S    
O26   C102  1.412142 S    
C5    N5    1.334839 A    
C44   C88   1.404246 S    
C14   C46   1.385639 A    
C107  H83   1.112501 S    
N14   Ni5   1.869794 S    
C100  H63   1.109563 S    
C6    N6    1.329474 A    
N38   O15   1.300897 A    
N13   Ni6   1.880194 S    
C50   C54   1.343456 D    
C46   C53   1.462944 S    
C10   C42   1.396683 A    
C43   C87   1.409133 S    
C58   C78   1.390735 A    
C88   C92   1.382562 A    
C9    C41   1.400544 A    
N34   O3    1.301271 A    
N39   O18   1.301294 A    
C57   C63   1.371423 A    
C90   H38   1.072145 S    
C51   C55   1.333733 D    
N10   Ni1   1.879818 S    
C59   C79   1.403759 A    
C99   H60   1.113746 S    
C96   H52   1.109291 S    
C13   C45   1.395922 A    
N9    Ni2   1.854616 S    
N2    Ni2   1.853799 S    
C105  H79   1.109301 S    
C27   N27   1.337436 A    
N6    N26   1.383289 A    
C93   H42   1.109321 S    
N29   Ni2   1.851895 S    
C2    N2    1.334411 A    
C67   C71   1.412556 A    
C16   N16   1.338981 A    
N7    N27   1.383289 A    
C103  H71   1.114462 S    
C97   H55   1.109081 S    
N17   Ni5   1.879572 S    
C35   C68   1.432951 S    
C22   H14   1.077226 S    
C49   C53   1.340617 D    
C106  H81   1.109025 S    
C101  H65   1.115278 S    
N15   Ni8   1.880194 S    
C1    C33   1.361855 A    
N13   N21   1.385162 A    
C18   N18   1.334213 A    
C107  H84   1.112450 S    
C61   C65   1.396383 A    
C6    H6    1.080910 S    
C22   C46   1.384253 A    
N8    N28   1.383289 A    
C73   O9    1.381565 S    
C59   C61   1.377364 A    
N11   N19   1.384919 A    
C95   H47   1.111521 S    
C20   N20   1.324028 A    
C62   H34   1.081667 S    
C104  H76   1.109329 S    
N5    Ni5   1.848722 S    
O27   C103  1.409439 S    
C98   H57   1.107524 S    
C10   N10   1.335556 A    
O30   C106  1.411058 S    
N22   Ni2   1.859115 S    
C65   C69   1.407075 A    
N35   O5    1.301620 A    
C28   N28   1.327370 A    
N7    Ni7   1.848721 S    
C28   C40   1.375595 A    
C15   C47   1.397264 A    
N16   N24   1.385194 A    
C96   H50   1.111368 S    
C5    H5    1.077068 S    
C16   C48   1.386305 A    
C63   H35   1.078442 S    
C82   N38   1.434737 S    
C57   C77   1.397906 A    
C93   H43   1.109108 S    
C37   C77   1.468436 S    
C105  H77   1.110213 S    
C50   O30   1.391382 S    
C94   H46   1.108884 S    
N30   Ni1   1.840821 S    
C32   N32   1.332797 A    
N38   O16   1.301304 A    
C19   C43   1.365847 A    
N3    Ni3   1.879579 S    
C38   C78   1.427681 S    
C20   C44   1.358819 A    
C19   N19   1.328199 A    
C97   H53   1.114395 S    
C40   C80   1.409736 S    
C19   H11   1.081392 S    
C70   C76   1.384634 A    
N28   Ni7   1.882759 S    
C54   H26   1.087309 S    
C15   N15   1.344065 A    
C63   C67   1.399414 A    
O24   C100  1.406361 S    
C16   O28   1.384821 S    
C47   C56   1.437276 S    
C27   H19   1.069688 S    
O22   C98   1.408231 S    
C11   C43   1.380962 A    
C100  H64   1.109055 S    
N36   O8    1.299293 A    
C34   C65   1.467590 S    
C13   O25   1.384739 S    
C56   H28   1.087750 S    
C60   C80   1.388444 A    
C29   N29   1.330113 A    
O11   C95   1.416250 S    
C31   H23   1.077261 S    
C57   H29   1.079799 S    
C92   H40   1.084620 S    
C24   H16   1.081168 S    
C26   H18   1.078839 S    
C72   N36   1.437892 S    
C29   H21   1.076331 S    
C74   C78   1.410935 A    
C5    C37   1.380422 A    
C17   H9    1.072802 S    
C83   C88   1.412165 A    
N14   N22   1.385194 A    
C93   H41   1.114604 S    
C52   O32   1.392705 S    
N37   O14   1.300559 A    
N23   Ni3   1.848653 S    
C81   C86   1.417779 A    
C6    C38   1.374110 A    
C99   H61   1.109103 S    
C85   C89   1.395634 A    
C51   C52   1.465140 S    
C41   C85   1.477961 S    
O28   C104  1.415912 S    
N35   O6    1.301261 A    
C68   C72   1.403636 A    
C108  H86   1.111451 S    
