data_mof_unit_46997.cif
_audit_creation_date              2013-03-05T16:00:09-0500
_audit_creation_method            fapswitch 2.2
_symmetry_space_group_name_H-M    P1
_symmetry_Int_Tables_number       1
_space_group_crystal_system       triclinic
_cell_length_a                    7.216545
_cell_length_b                    23.359438
_cell_length_c                    25.553215
_cell_angle_alpha                 90.000055
_cell_angle_beta                  89.999934
_cell_angle_gamma                 90.000189
_cell_volume                      4307.61879385

loop_
_atom_site_label
_atom_site_type_symbol
_atom_site_description
_atom_site_fract_x
_atom_site_fract_y
_atom_site_fract_z
_atom_type_partial_charge
O1    O     O_R   0.694650 0.802620 0.195790 -0.594108
O2    O     O_R   0.305350 0.197380 0.804210 -0.605921
O3    O     O_R   0.305350 0.197380 0.695790 -0.594111
O4    O     O_R   0.694650 0.802620 0.304210 -0.605916
O5    O     O_R   0.194650 0.697380 0.304210 -0.594107
O6    O     O_R   0.805350 0.302620 0.695790 -0.605920
O7    O     O_R   0.805350 0.302620 0.804210 -0.594110
O8    O     O_R   0.194650 0.697380 0.195790 -0.605915
O9    O     O_R   0.364900 0.809540 0.303840 -0.578646
O10   O     O_R   0.635100 0.190460 0.696160 -0.573966
O11   O     O_R   0.635100 0.190460 0.803840 -0.578643
O12   O     O_R   0.364900 0.809540 0.196160 -0.573967
O13   O     O_R   0.864900 0.690460 0.196160 -0.578647
O14   O     O_R   0.135100 0.309540 0.803840 -0.573967
O15   O     O_R   0.135100 0.309540 0.696160 -0.578645
O16   O     O_R   0.864900 0.690460 0.303840 -0.573969
H1    H     H_    0.090669 0.640589 0.499887 0.157772
H2    H     H_    0.709339 0.486001 0.598412 0.164634
H3    H     H_    0.909298 0.359414 0.999886 0.157770
H4    H     H_    0.290626 0.513989 0.098421 0.164638
H5    H     H_    0.590726 0.859415 0.000115 0.157771
H6    H     H_    0.209326 0.014002 0.901590 0.164633
H7    H     H_    0.409257 0.140583 0.500116 0.157770
H8    H     H_    0.790631 0.986009 0.401581 0.164638
C1    C     C_R   0.533906 0.824165 0.320045 0.890613
C2    C     C_R   0.466586 0.177418 0.678944 0.872659
C3    C     C_R   0.466094 0.175835 0.820045 0.890618
C4    C     C_R   0.533414 0.822582 0.178944 0.872657
C5    C     C_R   0.033905 0.675835 0.179955 0.890615
C6    C     C_R   0.966587 0.322582 0.821056 0.872657
C7    C     C_R   0.966094 0.324165 0.679955 0.890619
C8    C     C_R   0.033413 0.677418 0.321056 0.872654
H9    H     H_    0.163186 0.400960 0.522466 0.111467
H10   H     H_    0.026404 0.497183 0.396119 0.106837
H11   H     H_    0.836852 0.599049 0.022458 0.111474
H12   H     H_    0.973625 0.502818 0.896119 0.106835
H13   H     H_    0.663188 0.099040 0.977534 0.111463
H14   H     H_    0.526356 0.002818 0.103882 0.106835
H15   H     H_    0.336852 0.900949 0.477542 0.111472
H16   H     H_    0.473662 0.997182 0.603883 0.106833
O17   O     O_3   0.528130 0.713200 0.250000 -0.281624
O18   O     O_3   0.471870 0.286800 0.750000 -0.281624
O19   O     O_3   0.028130 0.786800 0.250000 -0.281623
O20   O     O_3   0.971870 0.213200 0.750000 -0.281623
V1    V     V_3+5 0.253280 0.756820 0.250000 1.184882
V2    V     V_3+5 0.746720 0.243180 0.750000 1.184884
V3    V     V_3+5 0.753280 0.743180 0.250000 1.184882
V4    V     V_3+5 0.246720 0.256820 0.750000 1.184883
C9    C     C_R   0.042125 0.639396 0.366830 -0.183219
C10   C     C_R   0.955512 0.368684 0.638764 -0.218849
C11   C     C_R   0.957874 0.360604 0.866830 -0.183219
C12   C     C_R   0.044488 0.631316 0.138763 -0.218841
C13   C     C_R   0.542128 0.860605 0.133170 -0.183223
C14   C     C_R   0.455510 0.131317 0.861237 -0.218845
C15   C     C_R   0.457873 0.139395 0.633170 -0.183224
C16   C     C_R   0.544489 0.868683 0.361237 -0.218833
C17   C     C_R   0.027842 0.580043 0.359614 -0.121441
C18   C     C_R   0.078856 0.365560 0.596267 -0.074609
C19   C     C_R   0.972175 0.419957 0.859614 -0.121452
C20   C     C_R   0.921165 0.634445 0.096262 -0.074644
C21   C     C_R   0.527814 0.919957 0.140387 -0.121446
C22   C     C_R   0.578856 0.134440 0.903733 -0.074604
C23   C     C_R   0.472197 0.080042 0.640387 -0.121456
C24   C     C_R   0.421165 0.865553 0.403738 -0.074646
C25   C     C_R   0.036882 0.542912 0.402459 -0.016952
C26   C     C_R   0.067726 0.404633 0.555007 -0.036352
C27   C     C_R   0.963135 0.457088 0.902458 -0.016952
C28   C     C_R   0.932296 0.595372 0.055003 -0.036365
C29   C     C_R   0.536856 0.957089 0.097542 -0.016947
C30   C     C_R   0.567725 0.095367 0.944993 -0.036353
C31   C     C_R   0.463154 0.042911 0.597543 -0.016947
C32   C     C_R   0.432296 0.904626 0.444998 -0.036365
C33   C     C_R   0.057647 0.564719 0.453286 0.098432
C34   C     C_R   0.934272 0.448189 0.555690 0.084921
C35   C     C_R   0.942352 0.435282 0.953286 0.098434
C36   C     C_R   0.065730 0.551811 0.055691 0.084918
C37   C     C_R   0.557650 0.935283 0.046715 0.098433
C38   C     C_R   0.434266 0.051813 0.944311 0.084924
C39   C     C_R   0.442350 0.064715 0.546716 0.098434
C40   C     C_R   0.565732 0.948187 0.444310 0.084921
C41   C     C_R   0.074135 0.624017 0.460547 -0.076723
C42   C     C_R   0.810716 0.451756 0.597883 -0.077568
C43   C     C_R   0.925845 0.375985 0.960546 -0.076726
C44   C     C_R   0.189265 0.548238 0.097888 -0.077532
C45   C     C_R   0.574170 0.875986 0.039455 -0.076727
C46   C     C_R   0.310707 0.048246 0.902119 -0.077573
C47   C     C_R   0.425820 0.124012 0.539455 -0.076731
C48   C     C_R   0.689268 0.951761 0.402113 -0.077532
C49   C     C_R   0.066183 0.661891 0.417823 -0.050913
C50   C     C_R   0.820800 0.413030 0.639968 -0.072645
C51   C     C_R   0.933797 0.338110 0.917822 -0.050910
C52   C     C_R   0.179179 0.586964 0.139973 -0.072645
C53   C     C_R   0.566219 0.838111 0.082179 -0.050905
C54   C     C_R   0.320792 0.086972 0.860034 -0.072647
C55   C     C_R   0.433772 0.161888 0.582179 -0.050904
C56   C     C_R   0.679182 0.913034 0.360028 -0.072647
C57   C     C_2   0.065153 0.525977 0.499474 -0.135906
C58   C     C_2   0.920823 0.490313 0.512188 -0.110734
C59   C     C_2   0.934846 0.474024 0.999474 -0.135905
C60   C     C_2   0.079179 0.509687 0.012188 -0.110738
C61   C     C_2   0.565152 0.974025 0.000527 -0.135902
C62   C     C_2   0.420819 0.009688 0.987813 -0.110727
C63   C     C_2   0.434844 0.025973 0.500528 -0.135902
C64   C     C_2   0.579180 0.990312 0.487813 -0.110734
H17   H     H_    0.010567 0.562477 0.320675 0.111704
H18   H     H_    0.182101 0.331997 0.594503 0.130588
H19   H     H_    0.989465 0.437522 0.820675 0.111707
H20   H     H_    0.817936 0.668014 0.094494 0.130591
H21   H     H_    0.510515 0.937522 0.179325 0.111709
H22   H     H_    0.682105 0.168002 0.905496 0.130581
H23   H     H_    0.489504 0.062479 0.679325 0.111711
H24   H     H_    0.317935 0.831985 0.405505 0.130579
C65   C     C_2   0.737555 0.492167 0.485170 0.492351
H25   H     H_    0.643082 0.456291 0.489404 0.013197
O21   O     O_2   0.686250 0.533873 0.460294 -0.578496
C66   C     C_2   0.236836 0.530798 0.531763 0.494233
H26   H     H_    0.359026 0.550571 0.514887 0.061289
O22   O     O_2   0.242236 0.515752 0.577489 -0.534844
C67   C     C_2   0.262452 0.507830 0.985173 0.492352
H27   H     H_    0.356932 0.543703 0.989409 0.013196
O23   O     O_2   0.313752 0.466123 0.960297 -0.578500
C68   C     C_2   0.763157 0.469207 0.031760 0.494235
H28   H     H_    0.640969 0.449433 0.014884 0.061294
O24   O     O_2   0.757747 0.484258 0.077485 -0.534854
C69   C     C_2   0.237549 0.007831 0.014830 0.492339
H29   H     H_    0.143074 0.043706 0.010597 0.013196
O25   O     O_2   0.186245 0.966122 0.039703 -0.578497
C70   C     C_2   0.736835 0.969207 0.968238 0.494223
H30   H     H_    0.859031 0.949438 0.985115 0.061296
O26   O     O_2   0.742229 0.984249 0.922511 -0.534838
C71   C     C_2   0.762454 0.992171 0.514827 0.492342
H31   H     H_    0.856933 0.956297 0.510592 0.013200
O27   O     O_2   0.813756 0.033879 0.539701 -0.578501
C72   C     C_2   0.263155 0.030788 0.468242 0.494229
H32   H     H_    0.140965 0.050561 0.485118 0.061301
O28   O     O_2   0.257746 0.015739 0.422516 -0.534852
C73   C     C_2   0.696446 0.421601 0.685685 0.565923
H33   H     H_    0.725252 0.400981 0.722807 0.006480
O29   O     O_2   0.560643 0.452632 0.682650 -0.548731
C74   C     C_2   0.080124 0.724606 0.426986 0.509314
H34   H     H_    0.066819 0.754564 0.394778 -0.004400
O30   O     O_2   0.106391 0.743763 0.470835 -0.580643
C75   C     C_2   0.303507 0.578388 0.185695 0.565916
H35   H     H_    0.274711 0.599017 0.222813 0.006475
O31   O     O_2   0.439277 0.547343 0.182668 -0.548728
C76   C     C_2   0.919836 0.275395 0.926986 0.509327
H36   H     H_    0.933150 0.245437 0.894779 -0.004407
O32   O     O_2   0.893542 0.256240 0.970833 -0.580644
C77   C     C_2   0.196434 0.078401 0.814318 0.565931
H37   H     H_    0.225248 0.099018 0.777195 0.006476
O33   O     O_2   0.060620 0.047375 0.817355 -0.548730
C78   C     C_2   0.580194 0.775396 0.073015 0.509324
H38   H     H_    0.566860 0.745438 0.105221 -0.004405
O34   O     O_2   0.606524 0.756242 0.029168 -0.580650
C79   C     C_2   0.803512 0.921611 0.314307 0.565922
H39   H     H_    0.774711 0.900984 0.277188 0.006470
O35   O     O_2   0.939290 0.952653 0.317335 -0.548728
C80   C     C_2   0.419788 0.224602 0.573015 0.509332
H40   H     H_    0.433116 0.254561 0.605221 -0.004412
O36   O     O_2   0.393459 0.243756 0.529168 -0.580647

loop_
_geom_bond_atom_site_label_1
_geom_bond_atom_site_label_2
_geom_bond_distance
_ccdc_geom_bond_type
C17   H17   1.083489 S    
C6    C11   1.470034 S    
C48   C56   1.407182 A    
O9    V1    2.014506 S    
C61   C62   1.372750 D    
H16   C31   1.083068 S    
C38   C62   1.487755 S    
C55   C80   1.486999 S    
C29   C37   1.403156 A    
C1    C16   1.481625 S    
C62   C69   1.492546 S    
C21   H21   1.083487 S    
C70   H30   1.084832 S    
C36   C44   1.401569 A    
C39   C47   1.402587 A    
O4    C1    1.327650 A    
C3    C14   1.481633 S    
O9    C1    1.332548 A    
C34   C58   1.487751 S    
C54   C77   1.486646 S    
C33   C57   1.488261 S    
C73   O29   1.221429 D    
C10   C50   1.420958 A    
O12   C4    1.328608 A    
O8    C5    1.327651 A    
O13   C5    1.332549 A    
C30   C38   1.401071 A    
C63   C72   1.492798 S    
C34   C42   1.401571 A    
C76   H36   1.084565 S    
C77   O33   1.221435 D    
C24   H24   1.082526 S    
C56   C79   1.486652 S    
C79   O35   1.221430 D    
C75   H35   1.083993 S    
C26   C34   1.401070 A    
O3    V4    2.006441 S    
C61   C70   1.492795 S    
C9    C17   1.402468 A    
C66   H26   1.084832 S    
C22   C30   1.396824 A    
C16   C56   1.420958 A    
C52   C75   1.486656 S    
O8    V1    2.006439 S    
C46   C54   1.407179 A    
C11   C51   1.415662 A    
C45   C53   1.406393 A    
C18   C26   1.396824 A    
C64   C71   1.492545 S    
C15   C23   1.402470 A    
O10   V2    2.014508 S    
O1    C4    1.325380 A    
H15   C32   1.083217 S    
C16   C24   1.406013 A    
O2    C3    1.327649 A    
C12   C20   1.406012 A    
C20   H20   1.082527 S    
O5    C8    1.325379 A    
C41   C49   1.406393 A    
C38   C46   1.401571 A    
H6    C46   1.084119 S    
O6    C7    1.327650 A    
H14   C29   1.083071 S    
C37   C45   1.402588 A    
O7    C6    1.325379 A    
H7    C47   1.083802 S    
H13   C30   1.083218 S    
C2    C15   1.470034 S    
C80   O36   1.221325 D    
C39   C63   1.488266 S    
C13   C21   1.402470 A    
O15   V4    2.014513 S    
O14   C6    1.328608 A    
H3    C43   1.083805 S    
O16   V3    2.014511 S    
C33   C41   1.402582 A    
O20   V2    1.769305 S    
H9    C26   1.083215 S    
C57   C58   1.372750 D    
C11   C19   1.402471 A    
C76   O32   1.221323 D    
C67   O23   1.220772 D    
H5    C45   1.083804 S    
H12   C27   1.083070 S    
C13   C53   1.415662 A    
C10   C18   1.406014 A    
O7    V2    2.006438 S    
C36   C60   1.487747 S    
C74   H34   1.084565 S    
C15   C55   1.415661 A    
C25   C33   1.403159 A    
C9    C49   1.415660 A    
O13   V3    2.014510 S    
O1    V3    2.006443 S    
C58   C65   1.492545 S    
O14   V4    2.014508 S    
C14   C22   1.406012 A    
O2    V4    2.006441 S    
O5    V1    2.006439 S    
C19   H19   1.083486 S    
C31   C39   1.403157 A    
C47   C55   1.406395 A    
C18   H18   1.082525 S    
O19   V1    1.769305 S    
C19   C27   1.398284 A    
C59   C60   1.372749 D    
C22   H22   1.082526 S    
O11   C3    1.332551 A    
C67   H27   1.085730 S    
C49   C74   1.486997 S    
C35   C59   1.488264 S    
O17   V3    1.769301 S    
C60   C67   1.492543 S    
O18   V4    1.769301 S    
C57   C66   1.492793 S    
H8    C48   1.084115 S    
C59   C68   1.492796 S    
C23   C31   1.398286 A    
H4    C44   1.084116 S    
H10   C25   1.083070 S    
C80   H40   1.084566 S    
C12   C52   1.420958 A    
C28   C36   1.401071 A    
C7    C10   1.481632 S    
C68   O24   1.220793 D    
C71   H31   1.085729 S    
C35   C43   1.402586 A    
C50   C73   1.486651 S    
C65   H25   1.085729 S    
C78   O34   1.221323 D    
C21   C29   1.398284 A    
C75   O31   1.221426 D    
O6    V2    2.006441 S    
C53   C78   1.487003 S    
O3    C2    1.325379 A    
C17   C25   1.398280 A    
O12   V1    2.014509 S    
C71   O27   1.220773 D    
C70   O26   1.220792 D    
C72   O28   1.220791 D    
C4    C13   1.470032 S    
O15   C7    1.332551 A    
C72   H32   1.084832 S    
C74   O30   1.221329 D    
O16   C8    1.328608 A    
C43   C51   1.406395 A    
C73   H33   1.083997 S    
C42   C50   1.407182 A    
C63   C64   1.372749 D    
C40   C48   1.401571 A    
C77   H37   1.084001 S    
O10   C2    1.328609 A    
C69   H29   1.085730 S    
H11   C28   1.083218 S    
C40   C64   1.487749 S    
H2    C42   1.084116 S    
C66   O22   1.220796 D    
C37   C61   1.488268 S    
H1    C41   1.083807 S    
C24   C32   1.396822 A    
C23   H23   1.083486 S    
C8    C9    1.470029 S    
C14   C54   1.420960 A    
C27   C35   1.403157 A    
C78   H38   1.084568 S    
C20   C28   1.396821 A    
C32   C40   1.401073 A    
C79   H39   1.083998 S    
C69   O25   1.220773 D    
O11   V2    2.014506 S    
C44   C52   1.407185 A    
C68   H28   1.084834 S    
C5    C12   1.481627 S    
C51   C76   1.487002 S    
C65   O21   1.220775 D    
O4    V3    2.006439 S    
