data_mof_unit_49369.cif
_audit_creation_date              2012-12-10T17:30:27-0500
_audit_creation_method            fapswitch 2.2
_symmetry_space_group_name_H-M    P1
_symmetry_Int_Tables_number       1
_space_group_crystal_system       triclinic
_cell_length_a                    11.965331
_cell_length_b                    12.901062
_cell_length_c                    15.001678
_cell_angle_alpha                 90.162423
_cell_angle_beta                  86.242529
_cell_angle_gamma                 93.114332
_cell_volume                      2307.34988256

loop_
_atom_site_label
_atom_site_type_symbol
_atom_type_description
_atom_site_fract_x
_atom_site_fract_y
_atom_site_fract_z
_atom_type_partial_charge
C1    C     C_R   0.521842 0.700505 0.498788 0.895223
C2    C     C_R   0.358725 0.137461 0.507080 -0.183648
C3    C     C_R   0.437629 0.867675 0.502970 -0.260149
C4    C     C_R   0.562371 0.132325 0.497030 -0.260147
C5    C     C_R   0.446308 0.974285 0.502629 0.180060
C6    C     C_R   0.553692 0.025715 0.497371 0.180065
C7    C     C_R   0.956514 0.411631 0.409727 -0.315609
C8    C     C_R   0.043486 0.588365 0.590275 -0.316161
C9    C     C_R   0.839763 0.419003 0.419125 0.045368
C10   C     C_R   0.160236 0.580993 0.580877 0.044420
C11   C     C_R   0.857091 0.536653 0.539889 -0.040354
C12   C     C_R   0.478158 0.299495 0.501212 0.895206
C13   C     C_R   0.142909 0.463346 0.460111 -0.040291
C14   C     C_R   0.974899 0.531700 0.533044 0.090212
C15   C     C_R   0.025101 0.468298 0.466957 0.090107
C16   C     C_R   0.500172 0.499873 0.673387 0.895887
C17   C     C_R   0.499811 0.500120 0.326610 0.895904
C18   C     C_R   0.399548 0.480604 0.190357 -0.195105
C19   C     C_R   0.600334 0.519621 0.809657 -0.195203
C20   C     C_R   0.499817 0.500743 0.230816 -0.105833
C21   C     C_R   0.500114 0.499323 0.769181 -0.105579
C22   C     C_R   0.600594 0.521138 0.180184 -0.153517
C23   C     C_R   0.701352 0.541699 0.941910 -0.276567
C24   C     C_R   0.399327 0.478867 0.819797 -0.153734
C25   C     C_R   0.602943 0.521860 0.087379 -0.018568
C26   C     C_R   0.396943 0.478287 0.912608 -0.018511
C27   C     C_R   0.500567 0.500560 0.046373 0.015697
C28   C     C_R   0.499289 0.499727 0.953629 0.015756
C29   C     C_R   0.399177 0.479986 0.098289 0.067872
C30   C     C_R   0.600687 0.520301 0.901719 0.067764
C31   C     C_R   0.704046 0.543061 0.034541 0.447009
C32   C     C_R   0.295851 0.457000 0.965453 0.447105
C33   C     C_R   0.298525 0.458515 0.058088 -0.276700
C34   C     C_R   0.465392 0.188229 0.501860 -0.057442
C35   C     C_R   0.534608 0.811771 0.498140 -0.057485
C36   C     C_R   0.650804 0.969886 0.492533 -0.197775
C37   C     C_R   0.349196 0.030114 0.507467 -0.197751
C38   C     C_R   0.641275 0.862539 0.492920 -0.183617
H1    H     H_    0.321901 0.464163 0.230546 0.156166
H2    H     H_    0.354845 0.828599 0.507029 0.165687
H3    H     H_    0.283251 0.180421 0.510776 0.169435
H4    H     H_    0.716749 0.819579 0.489223 0.169485
H5    H     H_    0.733450 0.009065 0.488505 0.147350
H6    H     H_    0.266549 0.990935 0.511495 0.147361
H7    H     H_    0.183031 0.414629 0.410044 0.123341
H8    H     H_    0.816970 0.585371 0.589957 0.123422
H9    H     H_    0.213076 0.624364 0.625240 0.147440
H10   H     H_    0.786923 0.375631 0.374763 0.147431
H11   H     H_    0.932607 0.495374 0.175196 0.383708
H12   H     H_    0.677979 0.536073 0.769475 0.156212
H13   H     H_    0.069107 0.502392 0.822611 0.382896
H14   H     H_    0.992694 0.362327 0.358164 0.157638
H15   H     H_    0.007306 0.637667 0.641840 0.157944
H16   H     H_    0.676435 0.536909 0.214225 0.225000
H17   H     H_    0.323518 0.462916 0.785737 0.224398
H18   H     H_    0.778033 0.557503 0.900540 0.194736
H19   H     H_    0.221867 0.442631 0.099455 0.194209
H20   H     H_    0.645155 0.171401 0.492971 0.165647
N1    N     N_R   0.207800 0.519350 0.516680 -0.106680
N2    N     N_R   0.792200 0.480650 0.483320 -0.106804
O1    O     O_R   0.421700 0.658830 0.504450 -0.628428
O2    O     O_2   0.825941 0.666256 0.139584 -0.313180
O3    O     O_3   0.866452 0.470349 0.143256 -0.550297
O4    O     O_2   0.174536 0.332966 0.860722 -0.314085
O5    O     O_2   0.073446 0.407099 0.990915 -0.226484
O6    O     O_3   0.133222 0.528680 0.856343 -0.549790
O7    O     O_R   0.578300 0.341170 0.495550 -0.628489
O8    O     O_R   0.609310 0.646410 0.493750 -0.625208
O9    O     O_R   0.390690 0.353590 0.506250 -0.625274
O10   O     O_R   0.406180 0.506230 0.637500 -0.625127
O11   O     O_R   0.593820 0.493770 0.362500 -0.624915
O12   O     O_R   0.593800 0.493820 0.626800 -0.626618
O13   O     O_R   0.406200 0.506180 0.373200 -0.626625
O14   O     O_2   0.926571 0.592351 0.009063 -0.226368
S1    S     S_3+6 0.834831 0.571784 0.081179 0.038028
S2    S     S_3+6 0.165182 0.427665 0.918798 0.038123
Zn1   Zn    Zn3+2 0.374730 0.508290 0.507150 0.962301
Zn2   Zn    Zn3+2 0.625270 0.491710 0.492850 0.962505

loop_
_geom_bond_atom_site_label_1
_geom_bond_atom_site_label_2
_ccdc_geom_bond_type
C25   C31   A    
C12   O9    A    
C26   C32   A    
C16   C21   S    
H11   O3    S    
C5    C37   A    
C27   C29   A    
O9    Zn1   S    
C16   O12   A    
N1    Zn1   S    
C23   H18   S    
C22   H16   S    
C24   H17   S    
N2    Zn2   S    
O5    S2    D    
C19   C21   A    
C24   C26   A    
C7    H14   S    
C38   H4    S    
C5    C6    A    
C11   C14   A    
C2    H3    S    
C29   C33   A    
C1    O8    A    
O12   Zn2   S    
O1    Zn1   S    
C22   C25   A    
C33   H19   S    
C2    C34   A    
C7    C15   A    
O10   Zn1   S    
C17   O13   A    
O7    Zn2   S    
O8    Zn2   S    
C12   O7    A    
C4    C34   A    
O14   S1    D    
C23   C30   A    
C35   C38   A    
C16   O10   A    
C4    C6    A    
H13   O6    S    
C23   C31   A    
C18   H1    S    
C31   S1    S    
C3    C35   A    
O6    S2    S    
O4    S2    D    
C18   C29   A    
C20   C22   A    
C3    H2    S    
C17   O11   A    
C13   C15   A    
O2    S1    D    
C12   C34   S    
C11   N2    A    
C19   H12   S    
C10   H9    S    
C1    C35   S    
C7    C9    A    
C8    C14   A    
C17   C20   S    
C3    C5    A    
C1    O1    A    
C8    H15   S    
C32   S2    S    
C13   N1    A    
C25   C27   A    
C26   C28   A    
C9    N2    A    
C32   C33   A    
C37   H6    S    
C36   C38   A    
C10   N1    A    
C13   H7    S    
C2    C37   A    
O3    S1    S    
C28   C30   A    
C6    C36   A    
C18   C20   A    
C36   H5    S    
C9    H10   S    
C8    C10   A    
C21   C24   A    
C4    H20   S    
C27   C28   A    
O13   Zn1   S    
C14   C15   A    
C11   H8    S    
C19   C30   A    
O11   Zn2   S    
