data_mof_unit_23427.cif
_audit_creation_date              2012-12-11T14:32:55-0500
_audit_creation_method            fapswitch 2.2
_symmetry_space_group_name_H-M    P1
_symmetry_Int_Tables_number       1
_space_group_crystal_system       triclinic
_cell_length_a                    6.939227
_cell_length_b                    14.005141
_cell_length_c                    17.802022
_cell_angle_alpha                 112.519432
_cell_angle_beta                  95.855239
_cell_angle_gamma                 89.877363
_cell_volume                      1588.54484696

loop_
_atom_site_label
_atom_site_type_symbol
_atom_type_description
_atom_site_fract_x
_atom_site_fract_y
_atom_site_fract_z
_atom_type_partial_charge
O1    O     O_R   0.484560 0.544530 0.414330 -0.547311
O2    O     O_R   0.197040 0.638810 0.585080 -0.514409
O3    O     O_R   0.026800 0.455470 0.585670 -0.527977
C1    C     C_R   0.373961 0.680190 0.609240 0.746606
O4    O     O_R   0.155000 0.556150 0.414940 -0.518471
O5    O     O_R   0.984450 0.372220 0.414320 -0.544032
C2    C     C_R   0.319255 0.565077 0.386577 0.760559
O6    O     O_R   0.526900 0.627780 0.585680 -0.532875
O7    O     O_3   0.339170 0.439750 0.499990 -0.387689
V1    V     V_3+5 0.064350 0.511180 0.500000 1.503749
O8    O     O_R   0.654880 0.361190 0.414920 -0.549756
C3    C     C_R   0.817277 0.324707 0.386430 0.731812
O9    O     O_R   0.696930 0.443850 0.585060 -0.552889
C4    C     C_R   0.874826 0.437091 0.614719 0.692717
V2    V     V_3+5 0.564340 0.488820 0.500000 1.419738
O10   O     O_3   0.839390 0.560250 0.500010 -0.340715
C5    C     C_R   0.041216 0.881949 0.831045 -0.079652
C6    C     C_R   0.914583 0.410420 0.688245 -0.117548
C7    C     C_R   0.942810 0.863750 0.690667 0.112804
C8    C     C_R   0.960426 0.822458 0.750620 -0.129898
C9    C     C_R   0.074417 0.989989 0.851923 -0.248530
C10   C     C_R   0.030575 0.036453 0.792842 0.071072
C11   C     C_R   0.990619 0.966934 0.710312 0.101752
C12   C     C_R   0.029193 0.146330 0.808264 -0.014391
C13   C     C_R   0.998805 0.175770 0.738520 0.064876
C14   C     C_R   0.001664 0.101781 0.660001 -0.169778
C15   C     C_R   0.000728 0.000362 0.646523 -0.180716
C16   C     C_R   0.052239 0.228713 0.887189 -0.000613
C17   C     C_R   0.066854 0.331731 0.893237 -0.207477
C18   C     C_R   0.029451 0.357013 0.824470 0.052986
C19   C     C_R   0.979095 0.279373 0.747194 0.105210
C20   C     C_R   0.037438 0.459773 0.832246 -0.150709
C21   C     C_R   0.986491 0.485721 0.764500 0.006982
C22   C     C_R   0.911688 0.307590 0.680225 -0.215631
H1    H     H_    0.010782 0.948618 0.584084 0.164188
H2    H     H_    0.853595 0.251217 0.621332 0.108912
H3    H     H_    0.093370 0.393932 0.953067 0.155747
H4    H     H_    0.911684 0.743732 0.732105 0.134468
H5    H     H_    0.140654 0.033917 0.912873 0.113597
H6    H     H_    0.013090 0.120521 0.607124 0.130920
H7    H     H_    0.084462 0.519784 0.891087 0.150070
H8    H     H_    0.114403 0.223335 0.307766 0.151326
H9    H     H_    0.833659 0.035679 0.193947 0.154416
C23   C     C_2   0.134677 0.037344 0.183223 -0.309754
C24   C     C_2   0.972154 0.078261 0.216742 -0.107947
H10   H     H_    0.675202 0.178905 0.295266 0.131459
C25   C     C_2   0.813415 0.221642 0.318558 -0.334137
C26   C     C_2   0.975897 0.180768 0.284963 -0.114895
H11   H     H_    0.272894 0.080069 0.206513 0.127753
C27   C     C_R   0.410600 0.787277 0.676458 -0.046268
C28   C     C_R   0.541882 0.469472 0.828967 -0.071004
C29   C     C_R   0.526274 0.888668 0.818913 -0.147371
C30   C     C_R   0.473958 0.793599 0.755350 -0.123816
C31   C     C_R   0.412348 0.881240 0.662019 -0.192664
C32   C     C_R   0.470612 0.980561 0.726768 0.090598
C33   C     C_R   0.521377 0.981513 0.806040 0.121247
C34   C     C_R   0.476557 0.079131 0.717152 0.070245
C35   C     C_R   0.516557 0.175876 0.787410 0.054619
C36   C     C_R   0.559113 0.170038 0.864359 -0.180690
C37   C     C_R   0.564705 0.075189 0.872997 -0.209812
C38   C     C_R   0.443631 0.084349 0.639684 -0.165325
C39   C     C_R   0.431816 0.178924 0.630953 -0.221559
C40   C     C_R   0.459941 0.273054 0.698510 0.113847
C41   C     C_R   0.510666 0.274852 0.778157 0.097258
C42   C     C_R   0.441259 0.365597 0.685674 -0.137498
C43   C     C_R   0.483091 0.461575 0.749372 -0.115394
C44   C     C_R   0.552269 0.375643 0.843671 -0.204691
H12   H     H_    0.600284 0.075292 0.933744 0.120781
H13   H     H_    0.593041 0.383274 0.905851 0.101322
H14   H     H_    0.472030 0.530580 0.735908 0.129794
H15   H     H_    0.399306 0.178295 0.569894 0.126337
H16   H     H_    0.571543 0.889656 0.879219 0.141734
H17   H     H_    0.484940 0.723993 0.768008 0.128514
H18   H     H_    0.368713 0.874747 0.600303 0.122216
H19   H     H_    0.590076 0.238333 0.919430 0.134825
H20   H     H_    0.421608 0.015668 0.584373 0.141384
H21   H     H_    0.396955 0.363584 0.624965 0.141359
C45   C     C_2   0.326358 0.606001 0.321125 -0.355042
C46   C     C_2   0.495245 0.625101 0.294083 -0.039413
H22   H     H_    0.745182 0.604031 0.184004 0.118543
C47   C     C_2   0.631478 0.656859 0.182500 -0.315710
C48   C     C_2   0.492451 0.676747 0.234899 0.181779
H23   H     H_    0.188774 0.624233 0.296026 0.195924
O11   O     O_R   0.421600 0.630430 0.917010 -0.520829
O12   O     O_R   0.793840 0.702190 0.087630 -0.532828
O13   O     O_R   0.964010 0.886170 0.088190 -0.537968
C49   C     C_R   0.631782 0.697150 0.117668 0.785369
O14   O     O_R   0.751460 0.619510 0.917500 -0.556225
O15   O     O_R   0.921330 0.802900 0.916840 -0.555820
C50   C     C_R   0.575114 0.577272 0.895187 0.670714
O16   O     O_R   0.464290 0.713700 0.088350 -0.524593
O17   O     O_3   0.609200 0.818520 0.002630 -0.384815
V3    V     V_3+5 0.884140 0.747190 0.002530 1.413962
O18   O     O_R   0.251150 0.814630 0.917340 -0.526195
C51   C     C_R   0.074185 0.833120 0.893840 0.726548
O19   O     O_R   0.293530 0.897310 0.087470 -0.540667
C52   C     C_R   0.130915 0.934143 0.115540 0.784694
V4    V     V_3+5 0.384070 0.769710 0.002370 1.447580
O20   O     O_3   0.109180 0.698190 0.002460 -0.371159
I1    I     I_    0.283126 0.793264 0.246730 -0.367816
C53   C     C_2   0.689654 0.597714 0.322124 0.466340
H24   H     H_    0.715199 0.520043 0.319389 0.031917
O21   O     O_2   0.824040 0.661996 0.346548 -0.515108
C54   C     C_2   0.002355 0.593115 0.775487 0.345370
H25   H     H_    0.877418 0.639648 0.791979 0.022210
O22   O     O_2   0.152729 0.628581 0.764925 -0.560573
I2    I     I_    0.815709 0.778204 0.570115 -0.350915
C55   C     C_2   0.041892 0.214211 0.964703 0.338140
H26   H     H_    0.941019 0.157087 0.967547 0.045932
O23   O     O_2   0.141454 0.268629 0.027185 -0.535254

loop_
_geom_bond_atom_site_label_1
_geom_bond_atom_site_label_2
_ccdc_geom_bond_type
C23   H11   S    
C13   C19   A    
C32   C33   A    
C40   C42   A    
C53   H24   S    
C49   O16   A    
C21   C54   S    
C4    C6    S    
O2    C1    A    
C7    C8    A    
C1    O6    A    
C54   O22   D    
C47   C48   D    
O17   V4    S    
C23   C24   D    
C14   C15   A    
C27   C31   A    
C16   C17   A    
C28   C50   S    
O5    C3    A    
C18   C19   A    
O18   V4    S    
V2    O10   S    
C5    C8    A    
C55   H26   S    
O13   C52   A    
H10   C25   S    
O8    V2    S    
C45   H23   S    
O19   V4    S    
C20   H7    S    
O1    V2    S    
C11   C15   A    
C17   C18   A    
O7    V1    S    
V3    O20   S    
O12   C49   A    
C36   C37   A    
C53   O21   D    
C31   H18   S    
O9    C4    A    
O15   V3    S    
C38   C39   A    
O11   C50   A    
C3    C25   S    
C54   H25   S    
C6    C22   A    
C38   H20   S    
C35   C41   A    
C27   C30   A    
C42   H21   S    
C41   C44   A    
C12   C13   A    
O4    C2    A    
C45   C46   D    
H8    C26   S    
C15   H1    S    
C35   C36   A    
C5    C9    A    
C33   C37   A    
C1    C27   S    
C44   H13   S    
C28   C43   A    
O15   C51   A    
C7    C11   A    
C39   C40   A    
C29   H16   S    
O13   V3    S    
C8    H4    S    
C23   C52   S    
C25   C26   D    
C9    H5    S    
O19   C52   A    
C19   C22   A    
C28   C44   A    
H9    C24   S    
C47   C49   S    
O3    C4    A    
C2    C45   S    
C5    C51   S    
O14   C50   A    
V4    O20   S    
O6    V2    S    
O9    V2    S    
C10   C12   A    
O2    V1    S    
C36   H19   S    
C29   C30   A    
C24   C26   S    
C31   C32   A    
O14   V3    S    
O1    C2    A    
C48   I1    S    
C30   H17   S    
C12   C16   A    
H22   C47   S    
O5    V1    S    
C46   C48   S    
O8    C3    A    
C34   C38   A    
O11   V4    S    
C20   C21   A    
C32   C34   A    
C13   C14   A    
O4    V1    S    
O3    V1    S    
V1    O10   S    
C18   C20   A    
C14   H6    S    
C34   C35   A    
C43   H14   S    
C16   C55   S    
O17   V3    S    
C55   O23   D    
C39   H15   S    
C22   H2    S    
O16   V4    S    
O7    V2    S    
O18   C51   A    
C6    C21   A    
C40   C41   A    
O12   V3    S    
C37   H12   S    
C42   C43   A    
C17   H3    S    
C10   C11   A    
C46   C53   S    
C9    C10   A    
C29   C33   A    
C7    I2    S    
