data_mof_unit_68353.cif
_audit_creation_date              2012-10-26T21:06:56-0400
_audit_creation_method            fapswitch 2.2
_symmetry_space_group_name_H-M    P1
_symmetry_Int_Tables_number       1
_space_group_crystal_system       triclinic
_cell_length_a                    10.768978
_cell_length_b                    8.709357
_cell_length_c                    7.476132
_cell_angle_alpha                 102.862085
_cell_angle_beta                  94.659074
_cell_angle_gamma                 93.78879
_cell_volume                      678.779861688

loop_
_atom_site_label
_atom_site_type_symbol
_atom_type_description
_atom_site_fract_x
_atom_site_fract_y
_atom_site_fract_z
_atom_type_partial_charge
Br1   Br    Br    0.889644 0.847082 0.585734 -0.538280
Br2   Br    Br    0.582588 0.940755 0.194615 -0.392871
Br3   Br    Br    0.339736 0.304208 0.905508 -0.369255
Br4   Br    Br    0.151442 0.658962 0.899395 -0.495392
Br5   Br    Br    0.844494 0.318545 0.104049 -0.486179
C1    C     C_R   0.505699 0.201620 0.453483 0.534619
C2    C     C_3   0.060741 0.338505 0.544422 -0.111416
C3    C     C_3   0.918649 0.353041 0.558969 -0.230175
C4    C     C_3   0.085553 0.643915 0.643048 0.026840
C5    C     C_3   0.061424 0.508662 0.307164 -0.219194
C6    C     C_3   0.120420 0.494792 0.500255 0.005448
C7    C     C_3   0.075524 0.179643 0.405141 -0.288918
C8    C     C_3   0.207542 0.130042 0.393945 -0.406472
C9    C     C_3   0.876486 0.500581 0.494956 0.011954
C10   C     C_3   0.941788 0.648656 0.635399 0.001194
C11   C     C_3   0.918124 0.499817 0.298860 0.020192
C12   C     C_2   0.523591 0.037441 0.427496 0.122451
C13   C     C_2   0.507163 0.967595 0.567477 -0.094053
C14   C     C_R   0.259466 0.497695 0.500840 0.537260
C15   C     C_R   0.507525 0.800309 0.545654 0.574408
C16   C     C_R   0.739515 0.501210 0.498156 0.579976
Cu1   Cu    Cu3+1 0.514070 0.517380 0.684380 1.126903
Cu2   Cu    Cu3+1 0.485930 0.482620 0.315620 1.128781
H1    H     H_    0.103538 0.328493 0.681243 0.220070
H2    H     H_    0.091251 0.416004 0.194988 0.212137
H3    H     H_    0.256029 0.192125 0.302454 0.206749
H4    H     H_    0.258761 0.153071 0.532706 0.177891
H5    H     H_    0.204362 0.001352 0.331460 0.175445
H6    H     H_    0.021439 0.083953 0.448800 0.216993
H7    H     H_    0.034809 0.179015 0.264462 0.222920
H8    H     H_    0.886191 0.605371 0.253866 0.192912
H9    H     H_    0.127809 0.751701 0.606834 0.171102
H10   H     H_    0.484897 0.034258 0.700300 0.161120
H11   H     H_    0.604756 0.614747 0.049720 0.246671
H12   H     H_    0.860311 0.245982 0.477770 0.189204
H13   H     H_    0.899542 0.361447 0.704824 0.179246
H14   H     H_    0.911232 0.647984 0.773869 0.209768
H15   H     H_    0.096145 0.623912 0.280376 0.161929
N1    N     N_2   0.464720 0.456420 0.038520 0.023012
N2    N     N_2   0.535280 0.543580 0.961480 -0.169408
O1    O     O_R   0.509140 0.286130 0.619770 -0.500447
O2    O     O_R   0.485380 0.256770 0.308360 -0.457778
O3    O     O_R   0.329570 0.514650 0.655700 -0.431777
O4    O     O_R   0.305810 0.485300 0.344290 -0.510423
O5    O     O_R   0.514620 0.743230 0.691640 -0.463070
O6    O     O_R   0.490860 0.713870 0.380230 -0.483174
O7    O     O_R   0.694190 0.514700 0.655710 -0.510523
O8    O     O_R   0.670430 0.485350 0.344300 -0.478390

loop_
_geom_bond_atom_site_label_1
_geom_bond_atom_site_label_2
_ccdc_geom_bond_type
C8    H5    S    
Br2   C12   S    
Br1   C10   S    
C7    H6    S    
C8    H4    S    
C15   O5    A    
C5    H15   S    
C16   O8    A    
Cu1   N2    S    
C12   C13   D    
C4    C10   S    
Br3   N1    S    
C2    C3    S    
Cu2   O6    S    
C5    C11   S    
C7    C8    S    
C11   H8    S    
C2    C6    S    
C4    C6    S    
C6    C14   S    
Cu2   O2    S    
Cu2   N1    S    
C9    C16   S    
C14   O3    A    
Cu1   O7    S    
C13   C15   S    
C1    O2    A    
C2    C7    S    
C13   H10   S    
C9    C11   S    
C8    H3    S    
Cu1   O1    S    
C5    C6    S    
C2    H1    S    
C15   O6    A    
Cu1   O5    S    
C14   O4    A    
C5    H2    S    
C3    H13   S    
N1    N2    D    
C1    C12   S    
Cu1   Cu2   S    
H11   N2    S    
Br5   C11   S    
C3    C9    S    
Cu2   O8    S    
C4    H9    S    
C7    H7    S    
Br4   C4    S    
C9    C10   S    
C3    H12   S    
C10   H14   S    
Cu2   O4    S    
Cu1   O3    S    
C16   O7    A    
C1    O1    A    
