data_mof_unit_31400.cif
_audit_creation_date              2012-12-10T17:30:22-0500
_audit_creation_method            fapswitch 2.2
_symmetry_space_group_name_H-M    P1
_symmetry_Int_Tables_number       1
_space_group_crystal_system       triclinic
_cell_length_a                    12.082679
_cell_length_b                    12.983275
_cell_length_c                    14.88103
_cell_angle_alpha                 90.465493
_cell_angle_beta                  85.254929
_cell_angle_gamma                 93.029362
_cell_volume                      2323.15954237

loop_
_atom_site_label
_atom_site_type_symbol
_atom_type_description
_atom_site_fract_x
_atom_site_fract_y
_atom_site_fract_z
_atom_type_partial_charge
C1    C     C_R   0.522261 0.700160 0.497406 0.871830
C2    C     C_R   0.364656 0.137004 0.545399 -0.079769
C3    C     C_R   0.449768 0.867605 0.530340 -0.283539
C4    C     C_R   0.554641 0.132159 0.476934 -0.263137
C5    C     C_R   0.453434 0.974037 0.523564 0.106016
C6    C     C_R   0.550887 0.025717 0.483078 0.085288
C7    C     C_R   0.963071 0.448867 0.389236 -0.161346
C8    C     C_R   0.038343 0.553168 0.610444 -0.124847
C9    C     C_R   0.844975 0.444303 0.404456 0.096962
C10   C     C_R   0.156421 0.560034 0.594073 0.074087
C11   C     C_R   0.854306 0.515173 0.550824 -0.088713
C12   C     C_R   0.477817 0.299620 0.502488 0.897365
C13   C     C_R   0.145596 0.480248 0.451226 -0.066254
C14   C     C_R   0.972906 0.516961 0.541138 -0.017774
C15   C     C_R   0.027605 0.482994 0.459437 0.021851
C16   C     C_R   0.499315 0.500586 0.672908 0.875143
C17   C     C_R   0.500428 0.498689 0.327096 0.903126
C18   C     C_R   0.436121 0.422400 0.190201 -0.247447
C19   C     C_R   0.560840 0.577808 0.810121 -0.257754
C20   C     C_R   0.501392 0.497408 0.231624 -0.049503
C21   C     C_R   0.497346 0.501769 0.768408 -0.030780
C22   C     C_R   0.565550 0.572950 0.182596 -0.287632
C23   C     C_R   0.619956 0.656693 0.946829 -0.221007
C24   C     C_R   0.431557 0.426996 0.817334 -0.225759
C25   C     C_R   0.562992 0.576103 0.089932 0.133322
C26   C     C_R   0.432218 0.424961 0.910272 0.127321
C27   C     C_R   0.498295 0.499852 0.046825 0.054136
C28   C     C_R   0.496587 0.501387 0.953482 0.052289
C29   C     C_R   0.435568 0.421951 0.097139 0.122685
C30   C     C_R   0.559426 0.579287 0.903245 0.135451
C31   C     C_R   0.622738 0.654569 0.039962 -0.239260
C32   C     C_R   0.370994 0.347460 0.960445 -0.238174
C33   C     C_R   0.017609 0.420251 0.299128 0.072373
C34   C     C_R   0.373372 0.345558 0.053696 -0.227897
C35   C     C_R   0.087450 0.492355 0.248412 -0.167977
C36   C     C_R   0.130606 0.468058 0.161188 -0.114138
C37   C     C_R   0.104932 0.371508 0.123969 -0.121536
C38   C     C_R   0.039383 0.297960 0.174989 -0.153976
C39   C     C_R   0.996620 0.322060 0.262300 -0.167092
C40   C     C_R   0.984520 0.583349 0.699547 0.148253
C41   C     C_R   0.927324 0.674499 0.709281 -0.173024
C42   C     C_R   0.880251 0.703864 0.794071 -0.159345
C43   C     C_R   0.890705 0.642790 0.869517 -0.096489
C44   C     C_R   0.944845 0.550558 0.859907 -0.119705
C45   C     C_R   0.463601 0.188023 0.507687 -0.134659
C46   C     C_R   0.990862 0.520492 0.775176 -0.057129
C47   C     C_R   0.264636 0.193436 0.575723 0.190237
C48   C     C_R   0.181931 0.206279 0.516478 -0.130327
C49   C     C_R   0.082522 0.249949 0.547392 -0.138554
C50   C     C_R   0.065639 0.281649 0.637182 -0.101774
C51   C     C_R   0.148500 0.270305 0.696145 -0.131923
C52   C     C_R   0.247787 0.226207 0.665577 -0.127821
C53   C     C_R   0.725560 0.803511 0.406810 0.189547
C54   C     C_R   0.725254 0.782728 0.314242 -0.165908
C55   C     C_R   0.816323 0.738561 0.267970 -0.149704
C56   C     C_R   0.537523 0.811418 0.493995 -0.116263
C57   C     C_R   0.908042 0.715470 0.313844 -0.104176
C58   C     C_R   0.908315 0.734602 0.406397 -0.146337
C59   C     C_R   0.817090 0.778403 0.453014 -0.101594
C60   C     C_R   0.746071 0.020579 0.405790 0.111606
C61   C     C_R   0.840597 0.032292 0.454465 -0.139771
C62   C     C_R   0.944920 0.054990 0.409338 -0.149701
C63   C     C_R   0.955415 0.066318 0.315752 -0.141222
C64   C     C_R   0.860852 0.059431 0.267429 -0.122144
C65   C     C_R   0.756244 0.036865 0.312282 -0.096866
C66   C     C_R   0.258377 0.977508 0.599398 0.111876
C67   C     C_R   0.642482 0.969754 0.449057 -0.056649
C68   C     C_R   0.242754 0.973964 0.693824 -0.158262
C69   C     C_R   0.139346 0.941712 0.736034 -0.102730
C70   C     C_R   0.051618 0.912740 0.684142 -0.094983
C71   C     C_R   0.068270 0.911565 0.590100 -0.169047
C72   C     C_R   0.171504 0.943926 0.547595 -0.162627
C73   C     C_2   0.224575 0.618880 0.657051 0.472358
C74   C     C_2   0.779777 0.400272 0.332900 0.473061
C75   C     C_R   0.360650 0.029519 0.555296 -0.044949
C76   C     C_R   0.634769 0.861688 0.452904 -0.072707
H1    H     H_    0.387104 0.364383 0.230448 0.143522
H2    H     H_    0.376776 0.827122 0.562589 0.165012
H3    H     H_    0.188955 0.445819 0.393096 0.159112
H4    H     H_    0.810456 0.542477 0.611774 0.154228
H5    H     H_    0.108867 0.567128 0.276415 0.123175
H6    H     H_    0.183414 0.524270 0.122264 0.143219
H7    H     H_    0.136227 0.353433 0.055767 0.132414
H8    H     H_    0.020634 0.222733 0.146493 0.123317
H9    H     H_    0.944300 0.265677 0.300784 0.165687
H10   H     H_    0.919370 0.722347 0.651213 0.114551
H11   H     H_    0.836411 0.774366 0.801484 0.112627
H12   H     H_    0.610078 0.635822 0.770011 0.138215
H13   H     H_    0.856892 0.666759 0.935486 0.126516
H14   H     H_    0.952106 0.502849 0.918233 0.125550
H15   H     H_    0.034188 0.449854 0.769041 0.119793
H16   H     H_    0.193719 0.180572 0.447086 0.110548
H17   H     H_    0.018224 0.258539 0.501916 0.143859
H18   H     H_    0.988076 0.314491 0.660980 0.124179
H19   H     H_    0.135258 0.293970 0.765913 0.117642
H20   H     H_    0.310167 0.214763 0.712204 0.096371
H21   H     H_    0.655941 0.803654 0.277681 0.109610
H22   H     H_    0.816734 0.723983 0.196241 0.120699
H23   H     H_    0.614661 0.630393 0.217064 0.141992
H24   H     H_    0.979298 0.684266 0.277096 0.120741
H25   H     H_    0.979816 0.717027 0.441639 0.129507
H26   H     H_    0.818471 0.795037 0.524320 0.095191
H27   H     H_    0.834272 0.018087 0.526379 0.121817
H28   H     H_    0.017984 0.060934 0.446566 0.136774
H29   H     H_    0.036655 0.082087 0.280847 0.123374
H30   H     H_    0.868942 0.069299 0.195006 0.118381
H31   H     H_    0.684279 0.026251 0.273720 0.118749
H32   H     H_    0.309078 0.000411 0.734438 0.122276
H33   H     H_    0.126353 0.941828 0.808868 0.125945
H34   H     H_    0.382535 0.369357 0.782687 0.132791
H35   H     H_    0.970410 0.892465 0.716850 0.117377
H36   H     H_    0.000407 0.888355 0.550164 0.125763
H37   H     H_    0.182492 0.946906 0.474672 0.126065
H38   H     H_    0.288223 0.674721 0.631201 0.078674
H39   H     H_    0.790042 0.433380 0.265771 0.049019
H40   H     H_    0.671149 0.714194 0.072862 0.136844
H41   H     H_    0.321877 0.288317 0.927570 0.138571
H42   H     H_    0.665424 0.718391 0.908858 0.140487
H43   H     H_    0.326284 0.284841 0.091877 0.150790
H44   H     H_    0.629213 0.172464 0.447283 0.223418
N1    N     N_R   0.207800 0.519350 0.516680 -0.147574
N2    N     N_R   0.792200 0.480650 0.483320 -0.113522
O1    O     O_R   0.421700 0.658830 0.504450 -0.652136
O2    O     O_2   0.719357 0.322870 0.346582 -0.588769
O3    O     O_R   0.578300 0.341170 0.495550 -0.573562
O4    O     O_R   0.609310 0.646410 0.493750 -0.618518
O5    O     O_R   0.390690 0.353590 0.506250 -0.619252
O6    O     O_R   0.406180 0.506230 0.637500 -0.615829
O7    O     O_R   0.593820 0.493770 0.362500 -0.609574
O8    O     O_R   0.593800 0.493820 0.626800 -0.634977
O9    O     O_R   0.406200 0.506180 0.373200 -0.632401
O10   O     O_2   0.212136 0.604924 0.738314 -0.587618
Zn1   Zn    Zn3+2 0.374730 0.508290 0.507150 0.946730
Zn2   Zn    Zn3+2 0.625270 0.491710 0.492850 0.978127

loop_
_geom_bond_atom_site_label_1
_geom_bond_atom_site_label_2
_ccdc_geom_bond_type
O3    Zn2   S    
C25   C31   A    
C74   O2    D    
C13   H3    S    
C26   C32   A    
C16   C21   S    
C56   C76   A    
C17   O9    A    
C41   C42   A    
C66   C68   A    
C35   C36   A    
C32   H41   S    
C10   N1    A    
C23   H42   S    
C35   H5    S    
C12   O5    A    
C53   C54   A    
C40   C46   A    
C41   H10   S    
C62   C63   A    
O1    Zn1   S    
C36   C37   A    
C61   H27   S    
C1    C56   S    
C24   C26   A    
C38   C39   A    
C10   C73   S    
C27   C29   A    
C66   C75   S    
C17   C20   S    
N2    Zn2   S    
C33   C35   A    
C69   H33   S    
C33   C39   A    
C66   C72   A    
C60   C67   S    
C36   H6    S    
C68   C69   A    
C22   C25   A    
C54   H21   S    
C70   C71   A    
C63   H29   S    
C16   O8    A    
C61   C62   A    
C7    C15   A    
C73   O10   D    
C7    C33   S    
O8    Zn2   S    
C44   C46   A    
C9    N2    A    
C62   H28   S    
C4    C45   A    
C2    C45   A    
C53   C59   A    
C17   O7    A    
C51   C52   A    
C23   C30   A    
C24   H34   S    
C1    O4    A    
C4    C6    A    
C19   H12   S    
C11   H4    S    
C18   C29   A    
C50   H18   S    
C46   H15   S    
C3    C5    A    
C58   C59   A    
C57   H24   S    
C72   H37   S    
C73   H38   S    
C63   C64   A    
C60   C61   A    
C32   C34   A    
C5    C75   A    
C43   C44   A    
C1    O1    A    
C37   C38   A    
C13   N1    A    
C3    C56   A    
C47   C48   A    
C71   H36   S    
C50   C51   A    
C58   H25   S    
C43   H13   S    
C16   O6    A    
C48   C49   A    
C20   C22   A    
C60   C65   A    
C55   C57   A    
C48   H16   S    
C53   C76   S    
C9    C74   S    
C39   H9    S    
C31   H40   S    
C44   H14   S    
C34   H43   S    
C7    C9    A    
C54   C55   A    
C40   C41   A    
C8    C14   A    
C22   H23   S    
C38   H8    S    
C59   H26   S    
C37   H7    S    
O5    Zn1   S    
C12   C45   S    
O9    Zn1   S    
C64   H30   S    
C47   C52   A    
C12   O3    A    
C2    C47   S    
C25   C27   A    
C68   H32   S    
C26   C28   A    
C49   H17   S    
C64   C65   A    
C13   C15   A    
C71   C72   A    
C6    C67   A    
O6    Zn1   S    
C3    H2    S    
C57   C58   A    
C5    C6    A    
C18   H1    S    
C74   H39   S    
C29   C34   A    
C55   H22   S    
C28   C30   A    
C11   C14   A    
C52   H20   S    
C18   C20   A    
C69   C70   A    
C42   H11   S    
C70   H35   S    
O7    Zn2   S    
C11   N2    A    
O4    Zn2   S    
C8    C10   A    
C49   C50   A    
C42   C43   A    
C21   C24   A    
C27   C28   A    
C14   C15   A    
C4    H44   S    
C67   C76   A    
C8    C40   S    
N1    Zn1   S    
C19   C30   A    
C65   H31   S    
C2    C75   A    
C51   H19   S    
C19   C21   A    
C23   C31   A    
