data_mof_unit_8512.cif
_audit_creation_date              2012-12-10T16:57:02-0500
_audit_creation_method            fapswitch 2.2
_symmetry_space_group_name_H-M    P1
_symmetry_Int_Tables_number       1
_space_group_crystal_system       triclinic
_cell_length_a                    7.752959
_cell_length_b                    8.496262
_cell_length_c                    16.593948
_cell_angle_alpha                 92.048514
_cell_angle_beta                  79.520632
_cell_angle_gamma                 93.946585
_cell_volume                      1071.98158747

loop_
_atom_site_label
_atom_site_type_symbol
_atom_type_description
_atom_site_fract_x
_atom_site_fract_y
_atom_site_fract_z
_atom_type_partial_charge
Br1   Br    Br    0.770914 0.272943 0.226089 -0.537620
Br2   Br    Br    0.114157 0.666251 0.751028 -0.599887
C1    C     C_R   0.543506 0.794205 0.509813 0.951527
C2    C     C_R   0.482110 0.679913 0.241370 -0.236675
C3    C     C_R   0.623163 0.561850 0.856220 -0.153403
C4    C     C_R   0.527668 0.741326 0.163958 -0.167507
C5    C     C_R   0.490405 0.646799 0.903253 0.130541
C6    C     C_R   0.643909 0.664792 0.103203 0.129282
C7    C     C_R   0.342288 0.682136 0.870505 0.157032
C8    C     C_R   0.722783 0.527752 0.121215 0.165108
C9    C     C_R   0.327249 0.626783 0.790787 0.254762
C10   C     C_R   0.676164 0.466140 0.200404 0.242440
C11   C     C_2   0.494503 0.673874 0.990382 -0.206131
C12   C     C_R   0.452257 0.207077 0.513785 0.966444
C13   C     C_2   0.644383 0.704928 0.018515 -0.212045
C14   C     C_3   0.201844 0.781465 0.918550 -0.851165
C15   C     C_3   0.848700 0.441401 0.057050 -0.840029
C16   C     C_3   0.742829 0.017624 0.551274 -0.845823
C17   C     C_3   0.232939 0.989501 0.571683 -0.834149
C18   C     C_2   0.562965 0.956943 0.534938 -0.025423
C19   C     C_2   0.422720 0.047508 0.540949 -0.047976
C20   C     C_R   0.476207 0.509003 0.655208 0.876357
C21   C     C_R   0.525090 0.499621 0.345207 0.945879
C22   C     C_R   0.466731 0.545342 0.742973 -0.147666
C23   C     C_R   0.554069 0.542254 0.259808 -0.136620
C24   C     C_R   0.612297 0.513431 0.777095 -0.219400
H1    H     H_    0.719198 0.449940 0.742434 0.199881
H2    H     H_    0.182692 0.883071 0.881556 0.270877
H3    H     H_    0.076646 0.708693 0.933168 0.244088
H4    H     H_    0.879816 0.500201 0.997429 0.214481
H5    H     H_    0.975097 0.432884 0.078630 0.263450
H6    H     H_    0.791405 0.320789 0.046242 0.266543
H7    H     H_    0.800429 0.926966 0.583134 0.234490
H8    H     H_    0.832991 0.044533 0.492659 0.257648
H9    H     H_    0.734012 0.122958 0.593100 0.255623
H10   H     H_    0.160192 0.083984 0.608280 0.243004
H11   H     H_    0.166424 0.955200 0.519208 0.248659
H12   H     H_    0.392857 0.742113 0.287620 0.179532
H13   H     H_    0.224633 0.889850 0.613848 0.285986
H14   H     H_    0.767571 0.730832 0.977125 0.168144
H15   H     H_    0.373298 0.645290 0.033202 0.172890
H16   H     H_    0.465539 0.844987 0.149958 0.174270
H17   H     H_    0.734472 0.528378 0.881236 0.170128
H18   H     H_    0.023161 0.378507 0.439235 0.208271
H19   H     H_    0.976817 0.621437 0.560810 0.211330
H20   H     H_    0.235099 0.832513 0.976575 0.234191
N1    N     N_2   0.953500 0.457650 0.478520 -0.164918
N2    N     N_2   0.046500 0.542350 0.521480 -0.160367
O1    O     O_R   0.388470 0.738640 0.505270 -0.620409
O2    O     O_R   0.611530 0.261360 0.494730 -0.609074
O3    O     O_R   0.679650 0.711510 0.491500 -0.620335
O4    O     O_R   0.320350 0.288490 0.508500 -0.620441
O5    O     O_R   0.337210 0.515200 0.623500 -0.571971
O6    O     O_R   0.662790 0.484800 0.376500 -0.567633
O7    O     O_R   0.628380 0.488060 0.609730 -0.640193
O8    O     O_R   0.371620 0.511940 0.390270 -0.621869
Zn1   Zn    Zn3+2 0.305580 0.518120 0.509190 0.966369
Zn2   Zn    Zn3+2 0.694420 0.481880 0.490810 0.969502

loop_
_geom_bond_atom_site_label_1
_geom_bond_atom_site_label_2
_ccdc_geom_bond_type
C14   H2    S    
C3    C5    A    
C20   O7    A    
C20   O5    A    
C16   H8    S    
C16   H9    S    
N1    N2    D    
H18   N1    S    
C5    C11   S    
C10   C23   A    
C11   H15   S    
C2    C23   A    
C3    H17   S    
C21   O8    A    
O3    Zn2   S    
C21   C23   S    
C18   C19   D    
N1    Zn2   S    
C15   H4    S    
C7    C9    A    
C24   H1    S    
C12   O2    A    
Br1   C10   S    
C8    C10   A    
Br2   C9    S    
C17   H13   S    
C12   C19   S    
C2    C4    A    
C17   C19   S    
C7    C14   S    
C2    H12   S    
C6    C13   S    
C16   C18   S    
C17   H10   S    
C11   C13   D    
C4    H16   S    
C15   H5    S    
C16   H7    S    
C20   C22   S    
C13   H14   S    
O7    Zn2   S    
O4    Zn1   S    
C8    C15   S    
C3    C24   A    
O2    Zn2   S    
C9    C22   A    
C1    C18   S    
N2    Zn1   S    
O1    Zn1   S    
O8    Zn1   S    
C21   O6    A    
C6    C8    A    
O6    Zn2   S    
H19   N2    S    
C14   H20   S    
C5    C7    A    
C15   H6    S    
C1    O3    A    
C4    C6    A    
C17   H11   S    
C14   H3    S    
C12   O4    A    
C22   C24   A    
C1    O1    A    
O5    Zn1   S    
