data_mof_unit_49089.cif
_audit_creation_date              2012-12-10T17:15:12-0500
_audit_creation_method            fapswitch 2.2
_symmetry_space_group_name_H-M    P1
_symmetry_Int_Tables_number       1
_space_group_crystal_system       triclinic
_cell_length_a                    15.867704
_cell_length_b                    13.097011
_cell_length_c                    11.760977
_cell_angle_alpha                 99.867494
_cell_angle_beta                  93.278361
_cell_angle_gamma                 91.978823
_cell_volume                      2401.61948708

loop_
_atom_site_label
_atom_site_type_symbol
_atom_type_description
_atom_site_fract_x
_atom_site_fract_y
_atom_site_fract_z
_atom_type_partial_charge
C1    C     C_R   0.505301 0.299675 0.478623 0.806610
C2    C     C_R   0.494698 0.700325 0.521377 0.806609
C3    C     C_R   0.499700 0.015767 0.346140 -0.199436
C4    C     C_R   0.500300 0.984233 0.653860 -0.199436
C5    C     C_R   0.511161 0.123207 0.355100 0.249210
C6    C     C_R   0.488839 0.876793 0.644900 0.249210
C7    C     C_R   0.520877 0.138510 0.566168 -0.090274
C8    C     C_R   0.479123 0.861490 0.433832 -0.090274
C9    C     C_R   0.506236 0.030764 0.555375 0.046775
C10   C     C_R   0.493764 0.969236 0.444625 0.046775
C11   C     C_R   0.430242 0.388361 0.023698 -0.162124
C12   C     C_R   0.569758 0.611639 0.976302 -0.162123
C13   C     C_R   0.430768 0.406517 0.145603 0.412727
C14   C     C_R   0.569232 0.593483 0.854397 0.412727
C15   C     C_R   0.533822 0.544540 0.157274 0.077968
C16   C     C_R   0.466178 0.455459 0.842726 0.077968
C17   C     C_R   0.526169 0.540263 0.034178 -0.066886
C18   C     C_R   0.473831 0.459737 0.965822 -0.066886
C19   C     C_R   0.340057 0.499744 0.500585 0.829751
C20   C     C_R   0.659943 0.500255 0.499415 0.829752
C21   C     C_3   0.967664 0.411332 0.438984 0.246636
C22   C     C_3   0.032336 0.588669 0.561016 0.246635
C23   C     C_3   0.024091 0.490275 0.392862 0.271780
C24   C     C_3   0.975910 0.509725 0.607138 0.271777
C25   C     C_1   0.250635 0.499592 0.502018 -0.165570
C26   C     C_1   0.749365 0.500408 0.497982 -0.165570
C27   C     C_3   0.027118 0.418506 0.549470 -0.280952
C28   C     C_3   0.972882 0.581494 0.450530 -0.280952
C29   C     C_3   0.083721 0.499254 0.502279 -0.019785
C30   C     C_3   0.916279 0.500747 0.497721 -0.019786
C31   C     C_1   0.175246 0.499430 0.502628 -0.028045
C32   C     C_1   0.824754 0.500570 0.497372 -0.028044
C33   C     C_R   0.486317 0.813995 0.533574 -0.183343
C34   C     C_R   0.513683 0.186005 0.466426 -0.183343
Cu1   Cu    Cu3+1 0.506200 0.507730 0.615930 0.982378
Cu2   Cu    Cu3+1 0.493800 0.492270 0.384070 0.982378
H1    H     H_    0.950506 0.647244 0.410376 0.161588
H2    H     H_    0.049494 0.352756 0.589624 0.161588
H3    H     H_    0.497440 0.967526 0.261782 0.165153
H4    H     H_    0.502560 0.032474 0.738218 0.165153
N1    N     N_R   0.515540 0.519350 0.790140 -0.222253
N2    N     N_R   0.484460 0.480650 0.209860 -0.222253
O1    O     O_R   0.504400 0.354460 0.582000 -0.577951
O2    O     O_R   0.495600 0.645540 0.418000 -0.577951
O3    O     O_R   0.493920 0.341410 0.386200 -0.557253
O4    O     O_R   0.506080 0.658590 0.613800 -0.557253
O5    O     O_R   0.384320 0.506520 0.597880 -0.589426
O6    O     O_R   0.615680 0.493480 0.402120 -0.589427
O7    O     O_R   0.373840 0.493460 0.402080 -0.551364
O8    O     O_R   0.626160 0.506540 0.597920 -0.551364
N3    N     N_2   0.053731 0.480215 0.277485 -0.421943
H5    H     H_    0.097854 0.424663 0.260262 0.245256
C35   C     C_3   0.988681 0.476596 0.185568 -0.652964
H6    H     H_    0.018528 0.476838 0.102516 0.216321
H7    H     H_    0.949468 0.545554 0.202209 0.232995
H8    H     H_    0.947851 0.404838 0.177663 0.248898
N4    N     N_2   0.946270 0.519787 0.722516 -0.421941
H9    H     H_    0.902148 0.575341 0.739739 0.245256
C36   C     C_3   0.011320 0.523402 0.814432 -0.652961
H10   H     H_    0.981474 0.523175 0.897488 0.216317
H11   H     H_    0.052160 0.595150 0.822326 0.248900
H12   H     H_    0.050523 0.454435 0.797798 0.232993
N5    N     N_2   0.929126 0.316278 0.372315 -0.422231
H13   H     H_    0.877680 0.289181 0.409896 0.257592
C37   C     C_3   0.986999 0.235939 0.336215 -0.687790
H14   H     H_    0.952066 0.169726 0.279319 0.232444
H15   H     H_    0.016127 0.207910 0.412668 0.222811
H16   H     H_    0.037256 0.265087 0.286726 0.233441
N6    N     N_2   0.070874 0.683722 0.627685 -0.422234
H17   H     H_    0.122321 0.710819 0.590107 0.257592
C38   C     C_3   0.013001 0.764061 0.663783 -0.687787
H18   H     H_    0.047935 0.830278 0.720672 0.232442
H19   H     H_    0.962746 0.734915 0.713279 0.233444
H20   H     H_    0.983869 0.792084 0.587328 0.222811
C39   C     C_1   0.450548 0.802067 0.321275 0.278256
N7    N     N_1   0.427292 0.755551 0.231559 -0.295967
C40   C     C_1   0.549452 0.197933 0.678724 0.278256
N8    N     N_1   0.572708 0.244450 0.768440 -0.295967
N9    N     N_2   0.474259 0.831261 0.745060 -0.413406
H21   H     H_    0.420559 0.783160 0.736485 0.263322
C41   C     C_3   0.491300 0.890724 0.860349 -0.715759
H22   H     H_    0.485933 0.838386 0.924768 0.237664
H23   H     H_    0.444441 0.951587 0.878350 0.237665
H24   H     H_    0.556555 0.926030 0.870309 0.239027
N10   N     N_2   0.525741 0.168739 0.254940 -0.413406
H25   H     H_    0.579441 0.216840 0.263515 0.263322
C42   C     C_3   0.508701 0.109276 0.139651 -0.715758
H26   H     H_    0.514068 0.161614 0.075232 0.237664
H27   H     H_    0.443446 0.073970 0.129691 0.239027
H28   H     H_    0.555559 0.048413 0.121650 0.237665
C43   C     C_1   0.402645 0.388620 0.771022 0.361871
N11   N     N_1   0.351455 0.335058 0.713734 -0.285606
C44   C     C_1   0.597354 0.611380 0.228978 0.361871
N12   N     N_1   0.648545 0.664942 0.286267 -0.285606
N13   N     N_2   0.623086 0.654313 0.796845 -0.364247
H29   H     H_    0.613286 0.732616 0.814637 0.265555
C45   C     C_3   0.711934 0.632879 0.807471 -0.670351
H30   H     H_    0.746494 0.670811 0.745347 0.219626
H31   H     H_    0.721075 0.548076 0.787755 0.246036
H32   H     H_    0.739423 0.663690 0.896137 0.213558
N14   N     N_2   0.376914 0.345687 0.203154 -0.364246
H33   H     H_    0.386715 0.267383 0.185362 0.265556
C46   C     C_3   0.288065 0.367120 0.192528 -0.670354
H34   H     H_    0.253505 0.329186 0.254650 0.219626
H35   H     H_    0.260578 0.336311 0.103860 0.213559
H36   H     H_    0.278924 0.451923 0.212245 0.246036
C47   C     C_1   0.390251 0.291515 0.963069 0.206447
N15   N     N_1   0.358581 0.213574 0.915934 -0.284437
C48   C     C_1   0.609751 0.708484 0.036931 0.206447
N16   N     N_1   0.641422 0.786424 0.084065 -0.284436

loop_
_geom_bond_atom_site_label_1
_geom_bond_atom_site_label_2
_ccdc_geom_bond_type
C25   C31   T    
C42   H26   S    
N5    C37   S    
C11   C18   A    
C26   C32   T    
N14   H33   S    
C22   C29   S    
C27   C29   S    
Cu2   N2    S    
N13   H29   S    
C24   C27   S    
Cu1   O5    S    
C41   H24   S    
C45   H30   S    
C6    N9    S    
C40   N8    T    
C2    O4    A    
C44   N12   T    
C23   C29   S    
C19   O5    A    
N4    C36   S    
C27   H2    S    
C15   C17   A    
N6    C38   S    
C13   N2    A    
C20   O8    A    
C45   H31   S    
C1    O1    A    
C4    H4    S    
C2    O2    A    
C24   N4    S    
C37   H15   S    
C12   C17   A    
C47   N15   T    
Cu1   O1    S    
C9    C10   A    
C22   N6    S    
C7    C40   S    
C5    N10   S    
N10   C42   S    
C21   C27   S    
C3    H3    S    
C36   H10   S    
N14   C46   S    
C22   C28   S    
C19   C25   S    
C12   C48   S    
C41   H23   S    
C1    C34   S    
C41   H22   S    
C35   H7    S    
C36   H11   S    
N3    H5    S    
C4    C6    A    
C43   N11   T    
N9    C41   S    
N10   H25   S    
C8    C39   S    
N9    H21   S    
N3    C35   S    
Cu1   Cu2   S    
C39   N7    T    
C19   O7    A    
C23   N3    S    
C37   H16   S    
C5    C34   A    
Cu1   O8    S    
C17   C18   A    
Cu2   O3    S    
C46   H35   S    
C23   C28   S    
C20   O6    A    
C14   N1    A    
C2    C33   S    
C16   C18   A    
C12   C14   A    
C21   C23   S    
C11   C47   S    
C7    C34   A    
C22   C24   S    
Cu2   O2    S    
C13   N14   S    
C14   N13   S    
C45   H32   S    
C38   H19   S    
C35   H8    S    
C7    C9    A    
C36   H12   S    
C15   N2    A    
C3    C5    A    
C15   C44   S    
C38   H20   S    
N13   C45   S    
C35   H6    S    
C21   C30   S    
C6    C33   A    
C28   C30   S    
C38   H18   S    
C29   C31   S    
C3    C10   A    
C48   N16   T    
C30   C32   S    
C11   C13   A    
C1    O3    A    
N4    H9    S    
C20   C26   S    
C28   H1    S    
Cu2   O6    S    
C46   H36   S    
C8    C33   A    
N6    H17   S    
Cu1   N1    S    
C24   C30   S    
C21   N5    S    
N5    H13   S    
C16   C43   S    
C8    C10   A    
C37   H14   S    
C42   H28   S    
C46   H34   S    
C42   H27   S    
C4    C9    A    
Cu1   O4    S    
C16   N1    A    
Cu2   O7    S    
