data_mof_unit_62182.cif
_audit_creation_date              2012-12-11T20:17:23-0500
_audit_creation_method            fapswitch 2.2
_symmetry_space_group_name_H-M    P1
_symmetry_Int_Tables_number       1
_space_group_crystal_system       triclinic
_cell_length_a                    8.23684
_cell_length_b                    17.358963
_cell_length_c                    18.799194
_cell_angle_alpha                 100.321657
_cell_angle_beta                  92.608746
_cell_angle_gamma                 98.764473
_cell_volume                      2606.2482801

loop_
_atom_site_label
_atom_site_type_symbol
_atom_type_description
_atom_site_fract_x
_atom_site_fract_y
_atom_site_fract_z
_atom_type_partial_charge
Ba1   Ba    Ba6+2 0.852650 0.537180 0.468240 1.680513
Ba2   Ba    Ba6+2 0.337190 0.462880 0.531770 1.681959
Br1   Br    Br    0.980135 0.129553 0.389666 -0.483255
Br2   Br    Br    0.477501 0.887130 0.332273 -0.441079
Br3   Br    Br    0.261753 0.718244 0.168622 -0.555472
Br4   Br    Br    0.930686 0.183261 0.799503 -0.536754
Br5   Br    Br    0.437724 0.789169 0.695803 -0.576756
C1    C     C_3   0.622649 0.816588 0.290361 0.499420
C2    C     C_3   0.436608 0.514758 0.245678 -0.030458
C3    C     C_2   0.377534 0.520403 0.169219 -0.069530
C4    C     C_3   0.070540 0.713898 0.292638 0.367500
C5    C     C_2   0.214647 0.499725 0.146726 -0.054870
C6    C     C_2   0.096663 0.478172 0.202147 -0.112937
C7    C     C_1   0.151213 0.482326 0.271032 0.075563
C8    C     C_R   0.048011 0.491624 0.927463 0.472207
C9    C     C_R   0.154989 0.497767 0.069183 0.498544
C10   C     C_R   0.092915 0.519286 0.800143 -0.122458
C11   C     C_R   0.038215 0.511936 0.726389 0.077378
C12   C     C_3   0.583749 0.733922 0.310106 0.234822
C13   C     C_R   0.773931 0.442440 0.749836 0.002669
C14   C     C_R   0.827730 0.449060 0.823043 -0.124334
C15   C     C_R   0.989602 0.486315 0.849281 -0.088011
C16   C     C_3   0.073697 0.743571 0.220874 0.089949
C17   C     C_R   0.881664 0.470550 0.701676 -0.290585
C18   C     C_2   0.431210 0.724319 0.491787 -0.248154
C19   C     C_3   0.300736 0.777021 0.503042 -0.016500
C20   C     C_2   0.373924 0.863304 0.509526 -0.055541
C21   C     C_2   0.539056 0.886917 0.523042 0.043404
C22   C     C_2   0.645694 0.826093 0.531195 -0.066723
C23   C     C_3   0.443506 0.335768 0.306444 0.324172
C24   C     C_1   0.578327 0.750907 0.525171 0.093655
C25   C     C_R   0.787478 0.140853 0.546776 -0.062668
C26   C     C_R   0.857967 0.219400 0.547784 0.042356
C27   C     C_R   0.615179 0.239900 0.480853 0.035914
C28   C     C_3   0.230972 0.722508 0.657998 0.544636
C29   C     C_R   0.545239 0.160767 0.477895 -0.058118
C30   C     C_R   0.629476 0.110518 0.511551 0.018710
C31   C     C_2   0.619294 0.970912 0.531465 -0.008924
C32   C     C_2   0.548889 0.026945 0.506399 -0.016741
C33   C     C_R   0.769319 0.269318 0.517224 -0.282848
C34   C     C_3   0.410457 0.306398 0.225097 -0.304077
C35   C     C_3   0.107780 0.780128 0.663150 -0.286610
C36   C     C_3   0.962266 0.285670 0.357506 0.238417
C37   C     C_3   0.951892 0.198294 0.321562 0.471235
C38   C     C_3   0.732197 0.633843 0.687449 0.320282
C39   C     C_3   0.760084 0.655492 0.769664 -0.324807
C40   C     C_3   0.072263 0.300702 0.721851 0.344983
C41   C     C_3   0.085008 0.278591 0.796473 0.122435
C42   C     C_3   0.534478 0.252766 0.682375 0.320951
C43   C     C_3   0.488510 0.171997 0.703279 -0.287922
C44   C     C_2   0.299244 0.520378 0.295727 -0.251178
Cl1   Cl    Cl    0.759723 0.162916 0.269859 -0.525391
Cl2   Cl    Cl    0.827868 0.862580 0.321599 -0.585777
H1    H     H_    0.641733 0.736851 0.365256 0.057659
H2    H     H_    0.870210 0.702223 0.785337 0.137675
H3    H     H_    0.779578 0.603028 0.792709 0.054296
H4    H     H_    0.650795 0.677851 0.792929 0.171297
H5    H     H_    0.448533 0.716278 0.310458 0.033421
H6    H     H_    0.326356 0.349249 0.328720 -0.015734
H7    H     H_    0.537033 0.390633 0.316296 0.024001
H8    H     H_    0.321779 0.249891 0.214147 0.154392
H9    H     H_    0.356856 0.350753 0.199818 0.034723
H10   H     H_    0.527190 0.296353 0.200371 0.158736
H11   H     H_    0.608387 0.811635 0.230608 0.136612
H12   H     H_    0.131103 0.824797 0.714354 0.155288
H13   H     H_    0.155740 0.357666 0.723338 0.044645
H14   H     H_    0.943424 0.308534 0.709590 -0.063443
H15   H     H_    0.056195 0.327456 0.838132 0.026485
H16   H     H_    0.211898 0.268451 0.809627 0.121905
H17   H     H_    0.670031 0.264230 0.679368 -0.037309
H18   H     H_    0.472373 0.250789 0.628218 0.066525
H19   H     H_    0.532353 0.125780 0.663474 0.070057
H20   H     H_    0.352789 0.156932 0.704009 0.160488
H21   H     H_    0.941070 0.706403 0.307360 0.088553
H22   H     H_    0.546434 0.172609 0.757911 0.176136
H23   H     H_    0.111995 0.811535 0.616682 0.062175
H24   H     H_    0.468447 0.534907 0.131609 0.120565
H25   H     H_    0.967139 0.457781 0.185451 0.123180
H26   H     H_    0.214158 0.552081 0.819272 0.130457
H27   H     H_    0.742673 0.425902 0.859261 0.119276
H28   H     H_    0.319521 0.557791 0.349213 0.054287
H29   H     H_    0.838530 0.465763 0.645586 0.066853
H30   H     H_    0.427352 0.010798 0.478193 0.118197
H31   H     H_    0.777520 0.844119 0.543567 0.097923
H32   H     H_    0.859150 0.104745 0.572117 0.090276
H33   H     H_    0.112646 0.655322 0.284994 0.017405
H34   H     H_    0.984096 0.748161 0.665046 0.131714
H35   H     H_    0.743671 0.984614 0.556422 0.082177
H36   H     H_    0.289973 0.905411 0.507818 0.082579
H37   H     H_    0.426046 0.138304 0.448740 0.126034
H38   H     H_    0.400813 0.663753 0.461973 0.055961
H39   H     H_    0.824078 0.330254 0.518076 0.064488
H40   H     H_    0.961025 0.714385 0.185808 0.086682
H41   H     H_    0.076407 0.808728 0.230233 0.190639
H42   H     H_    0.235871 0.691717 0.601403 -0.044390
H43   H     H_    0.845422 0.295724 0.381479 0.011866
H44   H     H_    0.064149 0.302296 0.400326 0.040335
H45   H     H_    0.052177 0.192583 0.284304 0.078314
H46   H     H_    0.843488 0.614129 0.664704 -0.037839
H47   H     H_    0.626313 0.584894 0.673090 0.081262
N1    N     N_R   0.207919 0.519803 0.951870 -0.220968
N2    N     N_R   0.260002 0.522715 0.020888 -0.207856
N3    N     N_R   0.994968 0.469923 0.044881 -0.230761
N4    N     N_R   0.942983 0.466803 0.975804 -0.225666
O1    O     O_2   0.865200 0.455450 0.325860 -0.454883
O2    O     O_2   0.194962 0.219394 0.535333 -0.455457
O3    O     O_3   0.119954 0.240805 0.670372 -0.587150
O4    O     O_3   0.117880 0.456770 0.413320 -0.495721
O5    O     O_3   0.582730 0.595670 0.541910 -0.488524
O6    O     O_2   0.334130 0.306180 0.453490 -0.467724
O7    O     O_3   0.501928 0.276372 0.337215 -0.577665
O8    O     O_2   0.443555 0.459349 0.752415 -0.485270
O9    O     O_3   0.482709 0.310933 0.734441 -0.590097
O10   O     O_3   0.657770 0.599920 0.378120 -0.490268
O11   O     O_2   0.780280 0.554494 0.253474 -0.488683
O12   O     O_3   0.700976 0.701343 0.661690 -0.585680
O13   O     O_3   0.989765 0.329647 0.302645 -0.638194
O14   O     O_3   0.644735 0.679133 0.257711 -0.606908
O15   O     O_2   0.855570 0.693850 0.546560 -0.500281
O16   O     O_3   0.082050 0.640900 0.416060 -0.503145
O17   O     O_2   0.968498 0.775507 0.451070 -0.458666
O18   O     O_3   0.171675 0.768799 0.347176 -0.564358
O19   O     O_2   0.324510 0.544570 0.674190 -0.456310
O20   O     O_3   0.071830 0.543290 0.586690 -0.502517
O21   O     O_3   0.531950 0.400150 0.621890 -0.491815
O22   O     O_3   0.190521 0.669737 0.705102 -0.620873
O23   O     O_3   0.606980 0.404400 0.458100 -0.486583
O24   O     O_3   0.107660 0.359170 0.583950 -0.495578
P1    P     P_3+3 0.032830 0.432130 0.335280 0.995891
P2    P     P_3+3 0.680690 0.682340 0.566920 1.017572
P3    P     P_3+3 0.129359 0.743389 0.431407 1.009324
P4    P     P_3+3 0.156880 0.567940 0.664730 1.004375
P5    P     P_3+3 0.070979 0.257873 0.583702 0.995949
P6    P     P_3+3 0.626781 0.586194 0.283740 0.962634
P7    P     P_3+3 0.515886 0.304517 0.431662 1.000448
P8    P     P_3+3 0.558553 0.404253 0.715518 0.951388

loop_
_geom_bond_atom_site_label_1
_geom_bond_atom_site_label_2
_ccdc_geom_bond_type
C18   C24   D    
C42   O9    S    
Ba2   O5    S    
N1    N2    A    
O19   P4    D    
O16   P3    S    
C11   P4    S    
C2    C44   S    
C34   H8    S    
C41   H16   S    
Br2   C1    S    
C38   C39   S    
C19   C20   S    
Br4   C41   S    
C11   C17   A    
C21   C22   S    
O23   P7    S    
C24   P2    S    
Ba1   P1    S    
C31   C32   D    
C4    H33   S    
C10   H26   S    
O15   P2    D    
O20   P4    S    
Ba1   Ba2   S    
Ba1   O15   S    
Ba2   O4    S    
C28   C35   S    
C17   H29   S    
C43   H19   S    
C6    C7    D    
Ba1   O5    S    
C37   H45   S    
C8    C15   S    
C7    C44   D    
C12   O14   S    
O9    P8    S    
C23   H7    S    
C39   H2    S    
C35   H12   S    
Ba2   P4    S    
C23   C34   S    
O3    P5    S    
C21   C31   S    
C8    N4    A    
O13   P1    S    
C2    C3    S    
C44   H28   S    
C40   H13   S    
O14   P6    S    
C2    P6    S    
C37   Cl1   S    
C14   C15   A    
O6    P7    D    
C34   H9    S    
O17   P3    D    
C40   H14   S    
C3    H24   S    
C36   H44   S    
C36   H43   S    
O2    P5    D    
C12   H5    S    
C30   C32   S    
Br1   C37   S    
C18   H38   S    
C26   C33   A    
O8    P8    D    
C1    C12   S    
C5    C9    S    
C22   H31   S    
Ba1   P2    S    
C38   H46   S    
C43   H20   S    
O1    P1    D    
C18   C19   S    
Ba2   O19   S    
C38   H47   S    
C33   H39   S    
C16   H40   S    
C31   H35   S    
Ba1   O16   S    
C28   O22   S    
C36   C37   S    
C9    N3    A    
C40   C41   S    
Br3   C16   S    
O22   P4    S    
C23   H6    S    
C13   C14   A    
C10   C11   A    
O10   P6    S    
C25   C30   A    
C8    N1    A    
C13   P8    S    
O4    P1    S    
C3    C5    D    
C36   O13   S    
C12   H1    S    
C9    N2    A    
C1    H11   S    
C40   O3    S    
C42   H17   S    
C39   H4    S    
C27   C33   A    
C4    O18   S    
Ba1   O10   S    
C34   H10   S    
O18   P3    S    
N3    N4    A    
O21   P8    S    
C29   H37   S    
C6    H25   S    
Ba2   O6    S    
Br5   C28   S    
Ba1   O23   S    
C41   H15   S    
C4    H21   S    
C1    Cl2   S    
O11   P6    D    
Ba2   O20   S    
C35   H23   S    
C10   C15   A    
C16   H41   S    
C23   O7    S    
C25   C26   A    
Ba1   O20   S    
C32   H30   S    
C22   C24   D    
C43   H22   S    
Ba2   O23   S    
C38   O12   S    
O7    P7    S    
C27   P7    S    
C25   H32   S    
C14   H27   S    
C4    C16   S    
C20   H36   S    
C27   C29   A    
Ba1   O4    S    
Ba2   O21   S    
C26   P5    S    
O12   P2    S    
C5    C6    S    
C29   C30   A    
C42   C43   S    
C42   H18   S    
C39   H3    S    
O5    P2    S    
C35   H34   S    
O24   P5    S    
C13   C17   A    
C19   P3    S    
Ba1   O1    S    
C28   H42   S    
C20   C21   D    
C7    P1    S    
Ba2   O24   S    
