data_mof_unit_49958.cif
_audit_creation_date              2012-12-11T14:36:00-0500
_audit_creation_method            fapswitch 2.2
_symmetry_space_group_name_H-M    P1
_symmetry_Int_Tables_number       1
_space_group_crystal_system       triclinic
_cell_length_a                    13.497152
_cell_length_b                    13.501263
_cell_length_c                    27.54218
_cell_angle_alpha                 90.588965
_cell_angle_beta                  89.994445
_cell_angle_gamma                 60.08349
_cell_volume                      4349.90131778

loop_
_atom_site_label
_atom_site_type_symbol
_atom_type_description
_atom_site_fract_x
_atom_site_fract_y
_atom_site_fract_z
_atom_type_partial_charge
C1    C     C_R   0.620194 0.101250 0.570184 0.543485
C2    C     C_1   0.631169 0.732396 0.616503 -0.001749
C3    C     C_3   0.696935 0.560207 0.767413 -0.092248
C4    C     C_3   0.683336 0.651076 0.805122 0.048990
C5    C     C_3   0.589274 0.652155 0.741103 -0.091247
C6    C     C_3   0.665890 0.682062 0.710654 0.052822
C7    C     C_3   0.575998 0.742444 0.779530 -0.106957
C8    C     C_3   0.652453 0.772870 0.748394 -0.108886
C9    C     C_1   0.691121 0.630738 0.857508 -0.049021
C10   C     C_1   0.650493 0.704659 0.658437 -0.044323
C11   C     C_3   0.088382 0.127781 0.737504 -0.123387
C12   C     C_R   0.599429 0.779892 0.568876 0.552299
C13   C     C_3   0.183549 0.062801 0.775788 -0.103892
C14   C     C_1   0.092582 0.203987 0.901004 -0.000264
C15   C     C_1   0.225498 0.139986 0.616754 0.001732
C16   C     C_3   0.041573 0.239238 0.768553 -0.117533
C17   C     C_3   0.137424 0.174247 0.805824 0.023502
C18   C     C_3   0.121166 0.272180 0.740952 -0.105365
C19   C     C_3   0.167313 0.161263 0.710552 0.071577
C20   C     C_3   0.216349 0.207865 0.779045 -0.057722
C21   C     C_3   0.259799 0.098366 0.748407 0.130602
C22   C     C_1   0.117270 0.186429 0.858467 -0.044441
C23   C     C_R   0.277323 0.122006 0.569560 0.550359
C24   C     C_1   0.193712 0.151177 0.658412 -0.025523
C25   C     C_3   0.619683 0.276360 0.740558 0.142692
C26   C     C_3   0.554895 0.247892 0.778407 0.270822
C27   C     C_1   0.692154 0.208182 0.902892 0.009819
C28   C     C_1   0.635745 0.133159 0.618206 0.000111
C29   C     C_3   0.730132 0.216583 0.770465 -0.104904
C30   C     C_3   0.665008 0.185891 0.808177 0.039742
C31   C     C_3   0.763844 0.103147 0.742637 -0.131899
C32   C     C_3   0.652933 0.165710 0.712870 0.039762
C33   C     C_3   0.699197 0.072713 0.781066 -0.152997
C34   C     C_R   0.622007 0.098629 0.430927 0.538025
C35   C     C_3   0.587929 0.135219 0.750672 -0.110999
C36   C     C_1   0.676010 0.196966 0.860651 -0.006335
C37   C     C_1   0.644923 0.151507 0.660418 -0.026440
C38   C     C_R   0.737907 0.690703 0.359244 0.234957
C39   C     C_R   0.750009 0.683523 0.307769 0.029315
C40   C     C_R   0.766519 0.661254 0.205614 -0.025878
C41   C     C_R   0.861266 0.641724 0.232865 -0.112390
C42   C     C_R   0.854259 0.654192 0.283174 0.248185
C43   C     C_R   0.778911 0.635557 0.156212 -0.128657
C44   C     C_R   0.686386 0.644355 0.129810 -0.017239
C45   C     C_R   0.600922 0.777535 0.429719 0.574628
C46   C     C_R   0.536660 0.749406 0.351029 -0.156318
C47   C     C_R   0.545740 0.739099 0.301031 -0.010066
C48   C     C_R   0.651722 0.708729 0.279073 -0.047538
C49   C     C_R   0.448276 0.763538 0.273003 0.161425
C50   C     C_R   0.455613 0.763052 0.222082 0.295996
C51   C     C_R   0.562818 0.723828 0.199947 0.027122
C52   C     C_R   0.659950 0.699431 0.228280 0.007616
C53   C     C_R   0.577420 0.697868 0.150358 -0.084493
C54   C     C_R   0.629006 0.731542 0.379964 -0.007062
C55   C     C_R   0.180803 0.079613 0.361692 0.087019
C56   C     C_R   0.277818 0.121266 0.430999 0.570329
C57   C     C_R   0.152203 0.094674 0.311847 0.040120
C58   C     C_R   0.112385 0.115094 0.211268 0.041601
C59   C     C_R   0.091837 0.039756 0.238183 -0.083652
C60   C     C_R   0.111503 0.029548 0.287959 -0.108133
C61   C     C_R   0.090382 0.126943 0.161706 -0.095275
C62   C     C_R   0.102447 0.208912 0.135486 -0.014351
C63   C     C_R   0.222551 0.234993 0.357329 -0.104774
C64   C     C_R   0.201030 0.247323 0.308033 -0.003839
C65   C     C_R   0.167820 0.175186 0.284837 -0.002517
C66   C     C_R   0.216543 0.327465 0.281356 0.269795
C67   C     C_3   0.773487 0.590472 0.736184 -0.095070
C68   C     C_R   0.201649 0.333613 0.230957 0.106388
C69   C     C_R   0.167853 0.262314 0.207597 0.012450
C70   C     C_R   0.149891 0.183852 0.234569 0.025274
C71   C     C_R   0.146077 0.272028 0.157898 -0.109020
C72   C     C_R   0.221224 0.146990 0.383533 0.028283
C73   C     C_R   0.576789 0.237777 0.363859 -0.116611
C74   C     C_R   0.582750 0.256927 0.314332 -0.017918
C75   C     C_R   0.589882 0.291830 0.214013 0.010536
C76   C     C_R   0.521084 0.384510 0.245397 0.227660
C77   C     C_R   0.518992 0.366667 0.295205 -0.050315
C78   C     C_3   0.760204 0.680900 0.774789 -0.101957
C79   C     C_R   0.602001 0.307574 0.164583 -0.105788
C80   C     C_R   0.677413 0.214606 0.135209 -0.018105
C81   C     C_R   0.714828 0.036368 0.351335 -0.122665
C82   C     C_R   0.718101 0.053285 0.302012 0.010008
C83   C     C_R   0.651319 0.163776 0.283166 0.047725
C84   C     C_R   0.784974 0.960416 0.271191 -0.126280
C85   C     C_R   0.786524 0.976576 0.221582 -0.125924
C86   C     C_R   0.722427 0.086298 0.202472 0.014905
C87   C     C_R   0.653750 0.180704 0.233154 0.025897
C88   C     C_R   0.731556 0.103764 0.153563 -0.127888
C89   C     C_1   0.698633 0.606008 0.899792 -0.005184
C90   C     C_R   0.641657 0.127145 0.382212 -0.003153
C91   C     C_R   0.048365 0.236781 0.949508 0.548772
C92   C     C_R   0.711906 0.562451 0.948051 0.543601
C93   C     C_R   0.722375 0.225588 0.950877 0.543079
C94   C     C_R   0.047573 0.245025 0.088409 0.546592
C95   C     C_R   0.707699 0.576485 0.085615 0.543738
C96   C     C_R   0.718289 0.234314 0.089276 0.544111
Cr1   Cr    Cr6+3 0.417550 0.169090 0.500530 1.057103
Cr2   Cr    Cr6+3 0.669180 0.913420 0.499920 1.092448
Cr3   Cr    Cr6+3 0.413260 0.917540 0.499520 1.057277
Cr4   Cr    Cr6+3 0.909170 0.177380 0.020380 1.040273
Cr5   Cr    Cr6+3 0.912710 0.429210 0.018220 1.039610
Cr6   Cr    Cr6+3 0.657170 0.432570 0.019030 1.062539
H1    H     H_    0.830219 0.693044 0.789266 0.116510
H2    H     H_    0.270828 0.238100 0.796341 0.180110
H3    H     H_    0.094540 0.358174 0.726349 0.122032
H4    H     H_    0.950313 0.298573 0.777590 0.107041
H5    H     H_    0.529425 0.102161 0.742085 0.150927
H6    H     H_    0.731966 0.988089 0.798266 0.120556
H7    H     H_    0.849977 0.043391 0.727560 0.119353
H8    H     H_    0.787589 0.251234 0.778709 0.103362
H9    H     H_    0.863223 0.597436 0.139732 0.138685
H10   H     H_    0.854435 0.527786 0.717893 0.111175
H11   H     H_    0.942122 0.615855 0.214806 0.144686
H12   H     H_    0.506924 0.706913 0.128452 0.202681
H13   H     H_    0.453623 0.779826 0.367594 0.180310
H14   H     H_    0.056183 0.077917 0.144418 0.149304
H15   H     H_    0.060847 0.988225 0.220665 0.144651
H16   H     H_    0.634669 0.860458 0.739939 0.117047
H17   H     H_    0.095787 0.969292 0.307246 0.130569
H18   H     H_    0.155423 0.334451 0.136990 0.176854
H19   H     H_    0.249476 0.289372 0.374928 0.215552
H20   H     H_    0.560588 0.392725 0.149680 0.196957
H21   H     H_    0.519842 0.307611 0.387713 0.141837
H22   H     H_    0.466466 0.438706 0.318940 0.182071
H23   H     H_    0.788340 0.031799 0.130559 0.134450
H24   H     H_    0.495087 0.803772 0.798183 0.107391
H25   H     H_    0.839715 0.903750 0.198330 0.125390
H26   H     H_    0.836142 0.875457 0.285520 0.169048
H27   H     H_    0.764139 0.950101 0.365015 0.170478
H28   H     H_    0.518650 0.641108 0.726581 0.122274
H29   H     H_    0.715824 0.472367 0.776017 0.113068
H30   H     H_    0.211675 0.976374 0.790256 0.111163
H31   H     H_    0.034966 0.096224 0.720137 0.111867
O1    O     O_R   0.301710 0.195650 0.554160 -0.496082
O2    O     O_R   0.658900 0.818120 0.449760 -0.447242
O3    O     O_R   0.503220 0.801620 0.445520 -0.527771
O4    O     O_R   0.319370 0.022040 0.450020 -0.464646
O5    O     O_3   0.499990 0.000010 0.499990 -0.273847
O6    O     O_R   0.818720 0.150820 0.967160 -0.509696
O7    O     O_R   0.006410 0.181720 0.970200 -0.494510
O8    O     O_R   0.027890 0.334070 0.964920 -0.498215
O9    O     O_R   0.809600 0.521790 0.967960 -0.496961
O10   O     O_R   0.635520 0.542770 0.964420 -0.498223
O11   O     O_R   0.665950 0.325030 0.970100 -0.485771
O12   O     O_R   0.522390 0.158990 0.550460 -0.492719
O13   O     O_R   0.816620 0.158530 0.074540 -0.518383
O14   O     O_R   0.004460 0.188870 0.069750 -0.499158
O15   O     O_R   0.025800 0.341780 0.072300 -0.517467
O16   O     O_R   0.807650 0.528950 0.067500 -0.504423
O17   O     O_R   0.633420 0.550490 0.071810 -0.505407
O18   O     O_R   0.664000 0.332180 0.069640 -0.495962
O19   O     O_3   0.826350 0.346390 0.019210 -0.257379
O20   O     O_R   0.694390 0.003530 0.554040 -0.503097
O21   O     O_R   0.657700 0.819660 0.549320 -0.486637
O22   O     O_R   0.501930 0.803280 0.552920 -0.503842
O23   O     O_R   0.318170 0.023580 0.549580 -0.495039
O24   O     O_R   0.303010 0.193990 0.446760 -0.521722
O25   O     O_R   0.523600 0.157450 0.450900 -0.498990
O26   O     O_R   0.695690 0.001860 0.446640 -0.503185
Cl1   Cl    Cl    0.416659 0.345349 0.802031 -0.643937
N1    N     N_3   0.576481 0.387280 0.717977 -0.621812
H32   H     H_    0.550690 0.447938 0.746010 0.243862
H33   H     H_    0.502652 0.404576 0.698973 0.255497
Cl2   Cl    Cl    0.854993 0.637938 0.399665 -0.484340
Cl3   Cl    Cl    0.978724 0.639524 0.310637 -0.490917
Cl4   Cl    Cl    0.331521 0.809322 0.185931 -0.612611
N2    N     N_3   0.344492 0.784555 0.297118 -0.630993
H34   H     H_    0.279245 0.799722 0.272982 0.305502
H35   H     H_    0.362200 0.709373 0.314837 0.256501
N3    N     N_3   0.170449 0.996842 0.390231 -0.603639
H36   H     H_    0.221530 0.915883 0.374728 0.253903
H37   H     H_    0.085165 0.016279 0.389906 0.234118
N4    N     N_3   0.219885 0.412734 0.203252 -0.615298
H38   H     H_    0.165261 0.495436 0.216445 0.299560
H39   H     H_    0.304392 0.393584 0.208089 0.295631
Cl5   Cl    Cl    0.255698 0.420846 0.310009 -0.570187
Cl6   Cl    Cl    0.434355 0.524108 0.223973 -0.595447
N5    N     N_3   0.379715 0.021999 0.736628 -0.644106
H40   H     H_    0.423711 0.997200 0.769463 0.216809
H41   H     H_    0.386391 0.948656 0.720320 0.232350

loop_
_geom_bond_atom_site_label_1
_geom_bond_atom_site_label_2
_ccdc_geom_bond_type
C84   H26   S    
C83   C87   A    
Cr2   O21   S    
Cr5   O15   S    
C40   C41   A    
Cr6   O19   S    
C73   C74   A    
C66   C68   A    
C74   C83   A    
C43   C44   A    
C2    C12   S    
N5    H40   S    
C6    C67   S    
C8    H16   S    
C7    C8    S    
N2    H35   S    
N4    H38   S    
Cr4   O19   S    
C67   C78   S    
C11   C19   S    
C29   C30   S    
C43   H9    S    
C46   H13   S    
Cr2   O5    S    
C3    H29   S    
C19   C21   S    
C73   C90   A    
C49   N2    S    
C11   H31   S    
C5    C6    S    
C86   C88   A    
N3    H36   S    
Cr4   O14   S    
C65   C70   A    
C17   C20   S    
C60   H17   S    
C18   C19   S    
C41   C42   A    
Cr5   O16   S    
C69   C71   A    
C92   O10   A    
Cr4   O7    S    
N1    H33   S    
Cr5   O8    S    
C44   C53   A    
C40   C43   A    
C31   C32   S    
C25   N1    S    
C16   C17   S    
C56   C72   S    
C74   C77   A    
Cr3   O22   S    
C50   Cl4   S    
C1    C28   S    
C31   C33   S    
Cr3   O5    S    
C26   Cl1   S    
C95   O16   A    
C80   C96   S    
C92   O9    A    
C55   N3    S    
C55   C72   A    
C30   C33   S    
C42   Cl3   S    
C16   H4    S    
Cr6   O18   S    
C34   O26   A    
C61   C62   A    
C25   C32   S    
C15   C23   S    
Cr2   O20   S    
C59   C60   A    
C59   H15   S    
C23   O23   A    
C8    C78   S    
C66   Cl5   S    
C62   C71   A    
C33   H6    S    
Cr6   O11   S    
Cr1   O1    S    
C4    C7    S    
C63   H19   S    
C81   C82   A    
C39   C42   A    
N4    H39   S    
C25   C29   S    
C79   H20   S    
C3    C67   S    
C45   O2    A    
C51   C52   A    
C32   C35   S    
C29   H8    S    
C84   C85   A    
C47   C49   A    
C76   Cl6   S    
C9    C89   T    
N2    H34   S    
C5    C7    S    
C86   C87   A    
C68   C69   A    
C57   C60   A    
C6    C8    S    
C94   O15   A    
C73   H21   S    
C58   C59   A    
C85   C86   A    
C96   O18   A    
Cr2   O2    S    
C79   C80   A    
C51   C53   A    
Cr1   O24   S    
C75   C76   A    
C34   C90   S    
C4    C78   S    
C88   H23   S    
C93   O6    A    
Cr4   O6    S    
C56   O24   A    
Cr5   O9    S    
C26   C35   S    
C81   H27   S    
C47   C48   A    
C38   C54   A    
C57   C65   A    
Cr3   O23   S    
C46   C54   A    
C61   H14   S    
C50   C51   A    
C31   H7    S    
C13   C21   S    
C95   O17   A    
C32   C37   S    
C76   C77   A    
C89   C92   S    
C1    O20   A    
C91   O7    A    
C93   O11   A    
Cr6   O17   S    
C81   C90   A    
C34   O25   A    
C75   C87   A    
C15   C24   T    
C45   C54   S    
C26   C30   S    
C82   C84   A    
C62   C94   S    
C49   C50   A    
Cr2   O26   S    
C27   C93   S    
C1    O12   A    
C12   O22   A    
C3    C4    S    
C2    C10   T    
Cr1   O5    S    
C53   H12   S    
C94   O14   A    
C46   C47   A    
C21   N5    S    
C45   O3    A    
C23   O1    A    
C78   H1    S    
Cr1   O12   S    
C16   C18   S    
C58   C70   A    
C12   O21   A    
C3    C5    S    
C71   H18   S    
C6    C10   S    
N5    H41   S    
C68   N4    S    
C20   H2    S    
C30   C36   S    
C27   C36   T    
C96   O13   A    
Cr5   O19   S    
C17   C22   S    
C13   C17   S    
C64   C65   A    
C14   C22   T    
C55   C57   A    
C19   C24   S    
C25   C26   S    
C41   H11   S    
C80   C88   A    
C44   C95   S    
C40   C52   A    
Cr1   O25   S    
C56   O4    A    
C11   C13   S    
C38   C39   A    
N1    H32   S    
C28   C37   T    
C58   C61   A    
C85   H25   S    
C38   Cl2   S    
C63   C72   A    
C33   C35   S    
C13   H30   S    
Cr3   O3    S    
C18   C20   S    
C7    H24   S    
C69   C70   A    
C14   C91   S    
C18   H3    S    
C11   C16   S    
C35   H5    S    
C63   C64   A    
C5    H28   S    
C67   H10   S    
C48   C52   A    
C20   C21   S    
C29   C31   S    
C82   C83   A    
Cr6   O10   S    
Cr4   O13   S    
C77   H22   S    
Cr3   O4    S    
N3    H37   S    
C4    C9    S    
C75   C79   A    
C64   C66   A    
C39   C48   A    
C91   O8    A    
