data_mof_unit_59646.cif
_audit_creation_date              2013-03-05T16:23:09-0500
_audit_creation_method            fapswitch 2.2
_symmetry_space_group_name_H-M    P1
_symmetry_Int_Tables_number       1
_space_group_crystal_system       triclinic
_cell_length_a                    15.110957
_cell_length_b                    13.814869
_cell_length_c                    15.877405
_cell_angle_alpha                 90.081021
_cell_angle_beta                  88.899605
_cell_angle_gamma                 89.959504
_cell_volume                      3313.88636678

loop_
_atom_site_label
_atom_site_type_symbol
_atom_site_description
_atom_site_fract_x
_atom_site_fract_y
_atom_site_fract_z
_atom_type_partial_charge
O1    O     O_R   0.371450 0.581430 0.500010 -0.585333
O2    O     O_R   0.371450 0.418570 0.500010 -0.578210
C1    C     C_R   0.330358 0.500039 0.499243 0.797456
O3    O     O_R   0.500000 0.581470 0.379440 -0.582441
O4    O     O_R   0.500000 0.418530 0.379440 -0.589811
C2    C     C_R   0.500734 0.500031 0.340077 0.819180
Cu1   Cu    Cu3+1 0.499990 0.596430 0.500000 0.939680
Cu2   Cu    Cu3+1 0.499990 0.403570 0.500000 0.942681
O5    O     O_R   0.628540 0.581440 0.499990 -0.569740
O6    O     O_R   0.628540 0.418560 0.499990 -0.565239
O7    O     O_R   0.499990 0.581400 0.620560 -0.590889
O8    O     O_R   0.499990 0.418600 0.620560 -0.588431
C3    C     C_R   0.670913 0.499901 0.497815 0.776817
C4    C     C_R   0.497936 0.500022 0.659844 0.833509
C5    C     C_3   0.439100 0.597603 0.053084 -0.199835
C6    C     C_3   0.436152 0.411203 0.053867 -0.200812
C7    C     C_3   0.416920 0.414899 0.954033 -0.015534
C8    C     C_3   0.439163 0.610886 0.951376 -0.008457
H1    H     H_    0.371095 0.577792 0.071574 0.104526
H2    H     H_    0.373488 0.418136 0.087943 0.098020
C9    C     C_1   0.489125 0.500346 0.748984 -0.237036
C10   C     C_3   0.489117 0.503230 0.082868 0.193429
C11   C     C_3   0.475557 0.505672 0.916623 0.194336
C12   C     C_3   0.573814 0.492298 0.947117 -0.434712
C13   C     C_3   0.581626 0.500256 0.042641 -0.398694
C14   C     C_1   0.480743 0.502541 0.824333 -0.132183
C15   C     C_1   0.496050 0.501811 0.175267 -0.059487
C16   C     C_1   0.499209 0.500530 0.250617 -0.179980
H3    H     H_    0.620781 0.564424 0.059453 0.163538
H4    H     H_    0.621306 0.439567 0.067555 0.167440
H5    H     H_    0.621634 0.543695 0.919404 0.166809
H6    H     H_    0.601408 0.422000 0.927275 0.157893
C17   C     C_R   0.104654 0.529602 0.411313 0.013250
C18   C     C_R   0.091998 0.463954 0.555021 0.020068
C19   C     C_R   0.196348 0.533599 0.420118 -0.238992
C20   C     C_R   0.183926 0.463800 0.559765 -0.247340
H7    H     H_    0.238086 0.559078 0.368379 0.127524
H8    H     H_    0.215783 0.438120 0.616040 0.121065
C21   C     C_R   0.235244 0.499986 0.493398 -0.032383
C22   C     C_R   0.051644 0.495659 0.479791 0.008730
C23   C     C_R   0.908268 0.409924 0.490147 -0.192366
C24   C     C_R   0.909282 0.581756 0.463037 -0.196149
H9    H     H_    0.944435 0.342993 0.499250 0.140545
H10   H     H_    0.946139 0.647715 0.450517 0.141449
C25   C     C_R   0.816840 0.411268 0.502011 -0.017459
C26   C     C_R   0.817024 0.584375 0.467735 -0.024478
C27   C     C_R   0.768972 0.498943 0.489915 -0.140263
C28   C     C_R   0.954689 0.495276 0.474738 0.062741
C29   C     C_R   0.475449 0.107413 0.573040 -0.291515
C30   C     C_R   0.537562 0.892607 0.566689 -0.289711
H11   H     H_    0.455371 0.070494 0.630411 0.132097
H12   H     H_    0.568529 0.929767 0.618480 0.119526
C31   C     C_R   0.474777 0.209237 0.571034 0.093118
C32   C     C_R   0.537969 0.790736 0.564556 0.114907
H13   H     H_    0.453762 0.248149 0.626974 0.128520
H14   H     H_    0.569217 0.751409 0.614765 0.118638
N1    N     N_R   0.500020 0.258690 0.500000 -0.164330
N2    N     N_R   0.500020 0.741310 0.500000 -0.167939
C33   C     C_R   0.525461 0.208367 0.429377 0.095014
C34   C     C_R   0.461176 0.791022 0.436353 0.091970
H15   H     H_    0.546804 0.246650 0.373313 0.130430
H16   H     H_    0.429788 0.751739 0.386234 0.129240
C35   C     C_R   0.524675 0.106480 0.428111 -0.307044
C36   C     C_R   0.460885 0.892888 0.435285 -0.297679
C37   C     C_R   0.499936 0.054260 0.500750 0.129069
C38   C     C_R   0.499452 0.945434 0.500978 0.122864
C39   C     C_R   0.344632 0.637017 0.917119 0.100486
C40   C     C_R   0.272355 0.667736 0.969615 -0.154223
C41   C     C_R   0.190597 0.692974 0.936155 -0.119932
C42   C     C_R   0.179044 0.693253 0.849509 -0.102139
C43   C     C_R   0.250460 0.672760 0.795999 -0.134277
C44   C     C_R   0.332399 0.648184 0.829153 -0.115147
H17   H     H_    0.276698 0.675692 0.036596 0.106086
H18   H     H_    0.136207 0.713476 0.977854 0.112160
H19   H     H_    0.115670 0.712804 0.823816 0.112430
H20   H     H_    0.243092 0.678269 0.728483 0.128288
H21   H     H_    0.386908 0.643455 0.784964 0.144815
C45   C     C_R   0.316374 0.430800 0.932203 0.090051
C46   C     C_R   0.246466 0.450742 0.991571 -0.156194
C47   C     C_R   0.158344 0.456567 0.966865 -0.128174
C48   C     C_R   0.136392 0.443490 0.883122 -0.095321
C49   C     C_R   0.202411 0.423844 0.823515 -0.122394
C50   C     C_R   0.290618 0.417380 0.847312 -0.119979
H22   H     H_    0.255448 0.467117 0.056882 0.103724
H23   H     H_    0.106833 0.473154 0.013030 0.123216
H24   H     H_    0.068191 0.449174 0.864487 0.138858
H25   H     H_    0.185205 0.412700 0.758608 0.129684
H26   H     H_    0.338592 0.398619 0.798723 0.136440
C51   C     C_R   0.776264 0.321209 0.534840 0.152553
C52   C     C_R   0.749584 0.315449 0.619863 -0.089569
C53   C     C_R   0.715155 0.229052 0.652274 -0.150867
C54   C     C_R   0.706584 0.148199 0.599987 -0.104998
C55   C     C_R   0.733081 0.153510 0.515253 -0.126735
C56   C     C_R   0.768302 0.239615 0.482714 -0.153187
H27   H     H_    0.756272 0.377525 0.661011 0.110900
H28   H     H_    0.695952 0.224719 0.718108 0.108231
H29   H     H_    0.679656 0.081409 0.625145 0.111249
H30   H     H_    0.726500 0.090862 0.474844 0.120045
H31   H     H_    0.789245 0.242854 0.417150 0.113629
C57   C     C_R   0.774713 0.677987 0.447938 0.143701
C58   C     C_R   0.727862 0.689122 0.373049 -0.083154
C59   C     C_R   0.690338 0.778537 0.353294 -0.131700
C60   C     C_R   0.700306 0.857569 0.407304 -0.104227
C61   C     C_R   0.747398 0.847134 0.481655 -0.144124
C62   C     C_R   0.784654 0.757670 0.501985 -0.166055
H32   H     H_    0.720322 0.628605 0.330322 0.106014
H33   H     H_    0.653790 0.786558 0.296017 0.132943
H34   H     H_    0.671290 0.926750 0.391683 0.117374
H35   H     H_    0.754817 0.908277 0.523625 0.120564
H36   H     H_    0.821194 0.750370 0.559662 0.114132
H37   H     H_    0.544992 0.068754 0.371109 0.117114
H38   H     H_    0.429178 0.930478 0.384273 0.125250
C63   C     C_R   0.472433 0.315629 0.091994 0.142105
C64   C     C_R   0.426806 0.273099 0.161314 -0.158905
C65   C     C_R   0.457682 0.188316 0.198677 -0.138823
C66   C     C_R   0.534439 0.143784 0.167756 -0.123051
C67   C     C_R   0.580299 0.183782 0.099264 -0.145474
C68   C     C_R   0.550010 0.268803 0.061856 -0.110732
H39   H     H_    0.367241 0.305955 0.187420 0.115168
H40   H     H_    0.422059 0.157253 0.251899 0.126319
H41   H     H_    0.558424 0.078270 0.196805 0.109867
H42   H     H_    0.639558 0.148738 0.074884 0.119949
H43   H     H_    0.586952 0.295680 0.008373 0.118894
C69   C     C_R   0.459684 0.687303 0.107636 0.125785
C70   C     C_R   0.394433 0.722658 0.164727 -0.174334
C71   C     C_R   0.409746 0.805095 0.213330 -0.138132
C72   C     C_R   0.490897 0.852731 0.207369 -0.120176
C73   C     C_R   0.557152 0.817580 0.153276 -0.163283
C74   C     C_R   0.542534 0.734839 0.104849 -0.102033
H44   H     H_    0.331180 0.686646 0.172034 0.107088
H45   H     H_    0.358503 0.831952 0.255827 0.112679
H46   H     H_    0.502615 0.916780 0.244753 0.108503
H47   H     H_    0.619889 0.855102 0.148208 0.119047
H48   H     H_    0.594229 0.713598 0.061014 0.124299
C75   C     C_R   0.435728 0.311442 0.915858 0.111725
C76   C     C_R   0.379480 0.234600 0.942912 -0.105093
C77   C     C_R   0.385896 0.142069 0.907945 -0.134008
C78   C     C_R   0.448183 0.123013 0.844498 -0.133049
C79   C     C_R   0.505338 0.195833 0.817293 -0.160486
C80   C     C_R   0.500004 0.288621 0.852402 -0.171650
H49   H     H_    0.329076 0.247043 0.991138 0.124572
H50   H     H_    0.341657 0.085324 0.929535 0.123094
H51   H     H_    0.452192 0.051794 0.816218 0.125131
H52   H     H_    0.553599 0.180375 0.767972 0.121038
H53   H     H_    0.546918 0.339713 0.827557 0.135788
C81   C     C_R   0.493370 0.702902 0.921667 0.111688
C82   C     C_R   0.562632 0.703170 0.859712 -0.170827
C83   C     C_R   0.604285 0.788938 0.834158 -0.156293
C84   C     C_R   0.576603 0.877600 0.866779 -0.125879
C85   C     C_R   0.505155 0.881097 0.923040 -0.145494
C86   C     C_R   0.462557 0.795934 0.947790 -0.115693
H54   H     H_    0.584795 0.639987 0.826542 0.134254
H55   H     H_    0.657465 0.786599 0.787502 0.117048
H56   H     H_    0.609039 0.943766 0.846795 0.117969
H57   H     H_    0.481924 0.949995 0.947239 0.138576
H58   H     H_    0.405222 0.803201 0.989093 0.138024
C87   C     C_R   0.067209 0.557180 0.328843 0.111196
C88   C     C_R   0.012568 0.492686 0.285123 -0.126811
C89   C     C_R   0.980217 0.517589 0.206090 -0.149302
C90   C     C_R   0.002671 0.606520 0.169697 -0.121729
C91   C     C_R   0.057379 0.670823 0.212360 -0.139610
C92   C     C_R   0.089647 0.646385 0.291536 -0.170988
H59   H     H_    0.996003 0.422647 0.311622 0.122196
H60   H     H_    0.938265 0.467587 0.172750 0.118693
H61   H     H_    0.977957 0.625445 0.108306 0.112269
H62   H     H_    0.075000 0.739547 0.183972 0.119310
H63   H     H_    0.132066 0.696979 0.323770 0.121526
C93   C     C_R   0.039505 0.431969 0.629803 0.107056
C94   C     C_R   0.980201 0.495896 0.670516 -0.120498
C95   C     C_R   0.926517 0.463531 0.737400 -0.172802
C96   C     C_R   0.932141 0.367543 0.764512 -0.136364
C97   C     C_R   0.992094 0.304025 0.725312 -0.120811
C98   C     C_R   0.045780 0.336025 0.658258 -0.186057
H64   H     H_    0.974713 0.570228 0.649620 0.119594
H65   H     H_    0.880269 0.512735 0.767977 0.118710
H66   H     H_    0.890306 0.342508 0.816105 0.115866
H67   H     H_    0.996570 0.229803 0.746547 0.125575
H68   H     H_    0.090967 0.285727 0.627497 0.128640

loop_
_geom_bond_atom_site_label_1
_geom_bond_atom_site_label_2
_geom_bond_distance
_ccdc_geom_bond_type
C97   H67   1.082302 S    
C5    C8    1.625478 S    
C96   C97   1.397781 A    
C35   C37   1.405880 A    
C55   C56   1.399006 A    
C94   C95   1.398024 A    
C82   C83   1.399046 A    
C67   H42   1.082414 S    
C9    C14   1.200942 T    
C73   C74   1.396776 A    
C48   C49   1.388228 A    
C84   C85   1.388771 A    
C52   H27   1.083301 S    
C5    H1    1.098238 S    
C57   C62   1.404729 A    
C47   H23   1.083054 S    
C29   C37   1.405151 A    
C18   C22   1.421090 A    
C71   H45   1.082288 S    
C4    C9    1.419008 S    
C19   H7    1.085236 S    
C62   H36   1.083167 S    
C63   C64   1.416044 A    
C78   H51   1.082092 S    
C46   H22   1.072239 S    
C47   C48   1.388124 A    
O7    C4    1.286539 A    
N1    C33   1.367217 A    
C95   C96   1.397792 A    
N2    C34   1.364390 A    
C65   C66   1.393218 A    
C58   H32   1.083353 S    
C66   C67   1.393364 A    
C34   H16   1.079981 S    
C39   C44   1.420957 A    
C24   C26   1.395114 A    
C11   C14   1.466502 S    
C51   C56   1.404089 A    
C10   C15   1.472945 S    
O5    C3    1.295409 A    
C72   H46   1.081376 S    
C7    C45   1.580121 S    
C44   H21   1.073572 S    
C53   H28   1.081178 S    
C45   C50   1.421995 A    
C5    C10   1.583898 S    
C2    C16   1.421047 S    
C6    C7    1.617870 S    
C29   H11   1.082982 S    
C10   C13   1.526197 S    
C7    C75   1.575195 S    
C30   H12   1.082875 S    
C11   C12   1.581302 S    
C42   C43   1.389325 A    
C25   C51   1.478571 S    
Cu1   N2    2.001497 S    
C64   H39   1.082835 S    
Cu2   O8    1.925117 S    
C25   C27   1.425448 A    
C50   H26   1.079609 S    
C1    C21   1.442035 S    
O1    Cu1   1.953528 S    
C6    C63   1.557010 S    
C87   C88   1.406675 A    
C23   H9    1.085001 S    
C75   C80   1.420886 A    
C24   H10   1.084903 S    
O3    Cu1   1.925011 S    
C18   C93   1.483245 S    
C70   H44   1.082176 S    
C61   C62   1.398497 A    
C17   C87   1.486421 S    
C54   H29   1.082507 S    
C64   C65   1.397610 A    
C95   H65   1.082361 S    
C31   H13   1.079939 S    
C13   H3    1.101503 S    
C93   C98   1.404665 A    
C32   H14   1.081186 S    
C33   H15   1.080108 S    
C17   C22   1.418508 A    
C66   H41   1.081839 S    
C8    C11   1.644562 S    
C58   C59   1.397387 A    
C75   C76   1.422104 A    
C12   C13   1.527337 S    
O3    C2    1.286165 A    
C5    C69   1.546098 S    
C53   C54   1.398329 A    
C3    C27   1.484717 S    
C31   N1    1.367585 A    
C45   C46   1.428617 A    
C40   C41   1.398302 A    
C24   C28   1.391756 A    
C8    C39   1.579974 S    
C90   H61   1.082817 S    
C92   H63   1.083306 S    
C81   C86   1.425089 A    
O1    C1    1.285001 A    
C36   C38   1.405816 A    
C88   C89   1.398763 A    
C94   H64   1.083218 S    
C19   C21   1.393635 A    
C84   H56   1.082544 S    
C12   H6    1.099909 S    
C76   H49   1.083055 S    
Cu2   N1    2.001497 S    
C79   H52   1.080752 S    
Cu1   O7    1.925701 S    
C89   C90   1.397656 A    
C6    H2    1.085632 S    
C49   H25   1.078544 S    
C41   H18   1.082731 S    
C7    C11   1.641326 S    
C86   H58   1.081025 S    
C83   C84   1.390203 A    
C96   H66   1.082363 S    
C30   C38   1.406204 A    
C60   H34   1.082324 S    
C88   H59   1.083207 S    
C39   C40   1.425137 A    
O8    C4    1.285488 A    
C37   C38   1.503448 S    
C85   H57   1.081714 S    
C70   C71   1.396700 A    
C46   C47   1.397700 A    
C83   H55   1.082861 S    
C72   C73   1.393160 A    
C59   H33   1.078796 S    
C43   H20   1.082658 S    
C42   H19   1.082298 S    
C97   C98   1.398452 A    
C81   C82   1.422496 A    
C32   N2    1.366312 A    
C13   H4    1.108271 S    
C22   C28   1.468818 S    
C26   C57   1.479104 S    
C26   C27   1.427158 A    
C93   C94   1.405669 A    
C6    C10   1.575703 S    
C89   H60   1.082450 S    
C20   C21   1.390063 A    
O2    Cu2   1.953236 S    
C48   H24   1.080505 S    
C76   C77   1.395518 A    
C8    C81   1.580418 S    
O6    C3    1.293897 A    
C80   H53   1.071043 S    
O4    Cu2   1.925592 S    
C79   C80   1.398752 A    
C65   H40   1.082536 S    
C77   C78   1.390133 A    
C33   C35   1.407735 A    
C85   C86   1.394861 A    
C34   C36   1.407397 A    
C56   H31   1.083181 S    
C90   C91   1.397226 A    
C20   H8    1.083109 S    
O2    C1    1.285214 A    
C40   H17   1.072264 S    
C12   H5    1.099693 S    
C43   C44   1.396572 A    
C30   C32   1.407705 A    
C91   C92   1.398776 A    
C73   H47   1.082483 S    
C52   C53   1.397283 A    
O4    C2    1.288479 A    
C98   H68   1.083138 S    
C71   C72   1.393794 A    
C29   C31   1.407119 A    
C87   C92   1.406939 A    
C54   C55   1.398333 A    
C17   C19   1.396409 A    
C23   C28   1.391992 A    
C69   C74   1.414102 A    
C82   H54   1.069081 S    
C18   C20   1.392605 A    
C68   H43   1.074042 S    
C35   H37   1.082934 S    
C59   C60   1.397376 A    
C41   C42   1.390086 A    
C74   H48   1.076541 S    
C36   H38   1.082116 S    
Cu1   Cu2   2.664337 S    
C78   C79   1.390202 A    
C91   H62   1.082783 S    
C63   C68   1.413571 A    
Cu1   O5    1.953371 S    
Cu2   O6    1.953662 S    
C49   C50   1.395213 A    
C60   C61   1.397623 A    
C23   C25   1.390868 A    
C61   H35   1.082365 S    
C57   C58   1.404055 A    
C51   C52   1.403808 A    
C67   C68   1.397677 A    
C55   H30   1.082389 S    
C77   H50   1.082412 S    
C69   C70   1.412871 A    
C15   C16   1.198396 T    
