data_mof_unit_37147.cif
_audit_creation_date              2012-12-10T18:13:49-0500
_audit_creation_method            fapswitch 2.2
_symmetry_space_group_name_H-M    P1
_symmetry_Int_Tables_number       1
_space_group_crystal_system       triclinic
_cell_length_a                    10.750093
_cell_length_b                    9.404848
_cell_length_c                    23.513514
_cell_angle_alpha                 90.187725
_cell_angle_beta                  89.931631
_cell_angle_gamma                 90.266554
_cell_volume                      2377.2464505

loop_
_atom_site_label
_atom_site_type_symbol
_atom_type_description
_atom_site_fract_x
_atom_site_fract_y
_atom_site_fract_z
_atom_type_partial_charge
C1    C     C_R   0.259931 0.499485 0.498726 0.843349
C2    C     C_R   0.306131 0.624259 0.970607 -0.138044
C3    C     C_R   0.306227 0.625330 0.029808 -0.108908
C4    C     C_R   0.406282 0.567348 0.060144 -0.010516
C5    C     C_R   0.507996 0.508133 0.030522 -0.062148
C6    C     C_R   0.609413 0.449379 0.060772 -0.123816
C7    C     C_R   0.710779 0.391719 0.029539 0.405838
C8    C     C_R   0.708838 0.392309 0.970144 -0.184140
C9    C     C_R   0.406576 0.566484 0.119619 0.621210
C10   C     C_R   0.603945 0.450456 0.120898 0.632743
C11   C     C_R   0.565018 0.606642 0.240493 -0.111448
C12   C     C_R   0.497119 0.499745 0.391055 0.922683
C13   C     C_R   0.562427 0.604789 0.299610 -0.184569
C14   C     C_R   0.494656 0.499758 0.328594 -0.185528
C15   C     C_R   0.425723 0.397570 0.297425 0.288614
C16   C     C_R   0.429396 0.399361 0.237688 0.409874
C17   C     C_R   0.499407 0.504127 0.209399 0.179058
C18   C     C_R   0.498438 0.374378 0.761534 -0.088470
C19   C     C_R   0.496820 0.372987 0.702228 -0.218646
C20   C     C_R   0.501994 0.501218 0.671751 -0.033709
C21   C     C_R   0.509141 0.630642 0.701685 -0.177211
C22   C     C_R   0.510940 0.631721 0.760949 -0.087464
C23   C     C_R   0.740151 0.500360 0.498814 0.921742
C24   C     C_R   0.505428 0.503708 0.791111 0.341394
C25   C     C_3   0.072739 0.552758 0.555706 -0.396342
C26   C     C_3   0.071675 0.346219 0.486165 -0.401019
C27   C     C_3   0.930429 0.531910 0.558891 0.164728
C28   C     C_3   0.928792 0.348412 0.482235 0.157046
C29   C     C_3   0.074986 0.595759 0.449149 -0.383699
C30   C     C_3   0.122505 0.498508 0.497586 -0.097900
C31   C     C_3   0.878469 0.501422 0.497580 -0.171408
C32   C     C_3   0.932274 0.614897 0.453904 0.690331
C33   C     C_3   0.579301 0.084668 0.547446 -0.196465
C34   C     C_3   0.579572 0.916948 0.547321 -0.156916
C35   C     C_3   0.373348 0.083205 0.509413 -0.185480
C36   C     C_3   0.373388 0.915798 0.509613 -0.186070
C37   C     C_3   0.548890 0.083371 0.447037 -0.157625
C38   C     C_3   0.548125 0.916084 0.446879 -0.182702
C39   C     C_R   0.500397 0.500264 0.609136 0.820071
C40   C     C_R   0.605731 0.449350 0.880531 0.570234
C41   C     C_R   0.407423 0.562653 0.880781 0.541724
C42   C     C_R   0.406253 0.565534 0.940434 -0.004009
C43   C     C_R   0.507600 0.507685 0.970399 -0.008417
C44   C     C_R   0.608165 0.449198 0.940242 -0.083991
Cu1   Cu    Cu3+1 0.499860 0.642410 0.500030 0.959536
Cu2   Cu    Cu3+1 0.499860 0.357590 0.500030 0.953329
H1    H     H_    0.491108 0.271697 0.680346 0.148558
H2    H     H_    0.513569 0.731098 0.679413 0.152826
H3    H     H_    0.097322 0.667169 0.560879 0.238686
H4    H     H_    0.113005 0.302771 0.446336 0.255974
H5    H     H_    0.117346 0.494063 0.591256 0.156579
H6    H     H_    0.099894 0.274215 0.521345 0.160203
H7    H     H_    0.911659 0.437116 0.585896 0.119603
H8    H     H_    0.892808 0.270669 0.513966 0.130474
H9    H     H_    0.227275 0.671274 0.051714 0.207921
H10   H     H_    0.676334 0.124617 0.543044 0.169842
H11   H     H_    0.676555 0.878587 0.542588 0.234214
H12   H     H_    0.333175 0.123180 0.550029 0.144837
H13   H     H_    0.333658 0.876627 0.550412 0.150918
H14   H     H_    0.311070 0.120217 0.474785 0.181816
H15   H     H_    0.310642 0.877344 0.475216 0.170185
H16   H     H_    0.787130 0.347460 0.947351 0.219850
H17   H     H_    0.618431 0.687731 0.218659 0.192425
H18   H     H_    0.614839 0.684680 0.322819 0.212857
H19   H     H_    0.493677 0.275002 0.784581 0.148812
N1    N     N_R   0.506213 0.505185 0.852138 -0.470385
N2    N     N_R   0.503608 0.507565 0.148464 -0.461794
N3    N     N_3   0.500250 0.143650 0.501250 -0.146546
N4    N     N_3   0.500250 0.856350 0.501250 -0.151091
O1    O     O_R   0.317570 0.620260 0.500030 -0.607124
O2    O     O_R   0.317570 0.379740 0.500030 -0.594158
O3    O     O_R   0.499840 0.620290 0.417900 -0.603212
O4    O     O_R   0.499840 0.379710 0.417900 -0.547170
O5    O     O_R   0.682190 0.620260 0.500010 -0.519441
O6    O     O_R   0.682190 0.379740 0.500010 -0.595132
O7    O     O_R   0.499920 0.620230 0.582140 -0.585657
O8    O     O_R   0.499920 0.379770 0.582140 -0.604227
O9    O     O_2   0.702397 0.395148 0.851040 -0.516752
O10   O     O_2   0.310164 0.615669 0.851594 -0.522919
O11   O     O_2   0.310412 0.623503 0.148615 -0.467471
O12   O     O_2   0.696632 0.394393 0.152016 -0.409233
H20   H     H_    0.227253 0.669463 0.948605 0.199254
H21   H     H_    0.516787 0.732074 0.783522 0.148316
Cl1   Cl    Cl    0.858885 0.674602 0.597805 -0.590669
Cl2   Cl    Cl    0.878070 0.278613 0.414876 -0.487062
H22   H     H_    0.122917 0.700803 0.450392 0.199455
H23   H     H_    0.100234 0.547270 0.407471 0.222615
Cl3   Cl    Cl    0.902904 0.795856 0.474922 -0.569317
Cl4   Cl    Cl    0.863135 0.600776 0.384614 -0.506024
H24   H     H_    0.545493 0.122247 0.589518 0.145874
H25   H     H_    0.546485 0.879020 0.589405 0.147065
H26   H     H_    0.491508 0.120191 0.410811 0.204539
H27   H     H_    0.489251 0.879112 0.410871 0.168845
H28   H     H_    0.644916 0.123035 0.439292 0.212375
H29   H     H_    0.643506 0.875913 0.438471 0.216309
Cl5   Cl    Cl    0.844269 0.316975 0.061002 -0.447754
Cl6   Cl    Cl    0.328143 0.273182 0.332144 -0.532227
Cl7   Cl    Cl    0.346986 0.270602 0.197778 -0.422704

loop_
_geom_bond_atom_site_label_1
_geom_bond_atom_site_label_2
_ccdc_geom_bond_type
C41   C42   A    
C19   C20   A    
C36   H13   S    
C9    N2    A    
C7    C8    A    
Cu1   Cu2   S    
C18   H19   S    
C7    Cl5   S    
C29   C30   S    
Cu1   O7    S    
C18   C24   A    
C39   O8    A    
C27   Cl1   S    
C29   C32   S    
C11   H17   S    
C26   H4    S    
C5    C6    A    
C19   H1    S    
C15   C16   A    
C32   Cl3   S    
C37   N3    S    
C18   C19   A    
C34   H25   S    
C3    H9    S    
C32   Cl4   S    
C16   C17   A    
C38   H29   S    
C34   H11   S    
C24   N1    S    
C21   H2    S    
C33   H10   S    
C12   O3    A    
C38   N4    S    
C40   N1    A    
C21   C22   A    
Cu1   O3    S    
C15   Cl6   S    
C12   O4    A    
Cu2   O6    S    
C17   N2    S    
Cu1   N4    S    
C20   C39   S    
C28   H8    S    
C10   N2    A    
C27   C31   S    
C35   H14   S    
C35   C36   S    
C23   C31   S    
C43   C44   A    
C25   H5    S    
Cu2   N3    S    
C37   C38   S    
C26   H6    S    
C31   C32   S    
C33   C34   S    
Cu2   O2    S    
C1    O2    A    
C39   O7    A    
C34   N4    S    
C29   H22   S    
C41   N1    A    
C12   C14   S    
C26   C30   S    
C35   H12   S    
C22   C24   A    
C2    H20   S    
C42   C43   A    
C23   O5    A    
C3    C4    A    
C36   N4    S    
C25   C30   S    
C11   C17   A    
C37   H26   S    
Cu1   O1    S    
C28   C31   S    
C8    C44   A    
C23   O6    A    
C4    C5    A    
C41   O10   S    
Cu2   O8    S    
C27   H7    S    
C6    C7    A    
C25   C27   S    
C10   O12   S    
C26   C28   S    
C1    O1    A    
C22   H21   S    
C2    C3    A    
C33   H24   S    
C11   C13   A    
C16   Cl7   S    
C13   H18   S    
C35   N3    S    
C2    C42   A    
C38   H27   S    
C1    C30   S    
C37   H28   S    
C40   O9    S    
C5    C43   A    
C25   H3    S    
C29   H23   S    
C6    C10   A    
C40   C44   A    
C20   C21   A    
C28   Cl2   S    
C14   C15   A    
Cu1   O5    S    
C4    C9    A    
C13   C14   A    
C9    O11   S    
Cu2   O4    S    
C36   H15   S    
C33   N3    S    
C8    H16   S    
