data_mof_unit_10560.cif
_audit_creation_date              2012-12-10T18:13:26-0500
_audit_creation_method            fapswitch 2.2
_symmetry_space_group_name_H-M    P1
_symmetry_Int_Tables_number       1
_space_group_crystal_system       triclinic
_cell_length_a                    12.556209
_cell_length_b                    13.130735
_cell_length_c                    16.818529
_cell_angle_alpha                 91.071618
_cell_angle_beta                  97.100551
_cell_angle_gamma                 97.155219
_cell_volume                      2728.5760427

loop_
_atom_site_label
_atom_site_type_symbol
_atom_type_description
_atom_site_fract_x
_atom_site_fract_y
_atom_site_fract_z
_atom_type_partial_charge
C1    C     C_R   0.558503 0.691022 0.516473 0.859566
C2    C     C_R   0.552806 0.411946 0.230983 -0.257100
C3    C     C_R   0.505877 0.384959 0.851450 -0.187830
C4    C     C_R   0.524360 0.407531 0.773909 -0.203811
C5    C     C_R   0.390680 0.527110 0.767639 -0.202960
C6    C     C_R   0.373219 0.505382 0.845788 -0.200185
C7    C     C_R   0.431986 0.435458 0.887891 0.178122
C8    C     C_2   0.526354 0.478954 0.017097 -0.301020
C9    C     C_2   0.434913 0.432956 0.974312 0.135136
C10   C     C_R   0.468178 0.479995 0.732332 -0.013485
C11   C     C_R   0.267952 0.045301 0.482187 0.157280
C12   C     C_R   0.515200 0.500141 0.350170 0.859375
C13   C     C_R   0.403640 0.197270 0.492866 -0.144708
C14   C     C_R   0.701323 0.839989 0.541754 -0.201462
C15   C     C_R   0.731943 0.945343 0.548045 -0.153782
C16   C     C_R   0.653701 0.011610 0.547959 -0.192236
C17   C     C_R   0.542965 0.972775 0.547811 0.110142
C18   C     C_R   0.514732 0.866163 0.552464 0.085870
C19   C     C_R   0.457940 0.034591 0.534554 0.039439
C20   C     C_R   0.348559 0.989252 0.521020 0.091424
C21   C     C_R   0.324896 0.888461 0.545741 -0.244987
C22   C     C_R   0.407990 0.829605 0.565597 -0.204825
C23   C     C_R   0.439968 0.307901 0.490392 0.870531
C24   C     C_R   0.479348 0.139734 0.531057 -0.307501
C25   C     C_R   0.299738 0.148095 0.460194 0.109965
C26   C     C_R   0.592248 0.799684 0.539863 -0.119467
C27   C     C_R   0.901012 0.360126 0.621272 -0.309744
C28   C     C_R   0.211124 0.629552 0.406988 -0.030597
C29   C     C_R   0.116008 0.673720 0.400846 -0.283515
C30   C     C_R   0.033791 0.637614 0.446476 0.203845
C31   C     C_R   0.044634 0.547024 0.491572 -0.054310
C32   C     C_R   0.147598 0.512680 0.501893 0.161668
C33   C     C_R   0.960556 0.489525 0.527563 -0.055634
C34   C     C_R   0.484633 0.499313 0.650086 0.836478
C35   C     C_R   0.985274 0.414876 0.585580 0.169954
C36   C     C_R   0.092509 0.393452 0.603429 0.093811
C37   C     C_R   0.169749 0.438475 0.557880 -0.256567
C38   C     C_R   0.851221 0.496870 0.503121 -0.053146
C39   C     C_R   0.795742 0.378670 0.599295 0.004479
C40   C     C_R   0.526082 0.501343 0.266022 -0.062425
C41   C     C_R   0.510992 0.588895 0.220249 0.157759
C42   C     C_R   0.516809 0.581584 0.138063 -0.183991
C43   C     C_R   0.537821 0.490104 0.103265 0.138975
C44   C     C_R   0.558194 0.406107 0.149462 -0.145482
H1    H     H_    0.317963 0.546462 0.874593 0.126868
H2    H     H_    0.243121 0.852876 0.548355 0.162925
H3    H     H_    0.762534 0.790367 0.535416 0.160503
H4    H     H_    0.682164 0.092155 0.544744 0.131160
H5    H     H_    0.815997 0.976047 0.547946 0.140027
H6    H     H_    0.386534 0.753675 0.587166 0.180638
H7    H     H_    0.582480 0.368517 0.746546 0.146071
H8    H     H_    0.914281 0.302281 0.664882 0.152306
H9    H     H_    0.824889 0.541243 0.453248 0.161391
H10   H     H_    0.276717 0.661661 0.375323 0.145604
H11   H     H_    0.110312 0.741213 0.365332 0.148974
H12   H     H_    0.345752 0.582200 0.735534 0.149539
H13   H     H_    0.552754 0.332069 0.884580 0.136613
H14   H     H_    0.565699 0.345436 0.266441 0.150281
H15   H     H_    0.501205 0.645797 0.100637 0.140431
N1    N     N_R   0.774070 0.445420 0.541180 -0.101404
N2    N     N_R   0.226730 0.554050 0.459240 -0.120253
O1    O     O_R   0.631480 0.627510 0.519670 -0.607972
O2    O     O_R   0.455770 0.662400 0.493360 -0.625065
O3    O     O_R   0.598240 0.480510 0.398910 -0.606568
O4    O     O_R   0.422540 0.515400 0.372600 -0.625506
O5    O     O_R   0.544230 0.337600 0.506640 -0.618003
O6    O     O_R   0.368520 0.372490 0.480330 -0.620087
O7    O     O_R   0.577460 0.484600 0.627400 -0.616362
O8    O     O_R   0.401760 0.519490 0.601090 -0.641609
Zn1   Zn    Zn3+2 0.617320 0.476700 0.517570 0.935467
Zn2   Zn    Zn3+2 0.382680 0.523300 0.482430 0.913227
C45   C     C_3   0.489300 0.690092 0.256052 -0.437789
C46   C     C_3   0.585503 0.773066 0.254257 -0.875051
H16   H     H_    0.659534 0.747921 0.286895 0.265432
H17   H     H_    0.599324 0.789495 0.191563 0.257325
H18   H     H_    0.569355 0.844908 0.283833 0.252974
H19   H     H_    0.416192 0.714995 0.221622 0.201490
H20   H     H_    0.473045 0.684124 0.319100 0.222246
C47   C     C_3   0.229591 0.200279 0.396871 -0.383108
C48   C     C_3   0.132934 0.239504 0.429061 -0.801558
H21   H     H_    0.057978 0.185421 0.412342 0.239963
H22   H     H_    0.147141 0.248774 0.495182 0.257632
H23   H     H_    0.119232 0.314606 0.403062 0.248736
H24   H     H_    0.277868 0.264697 0.370678 0.212521
H25   H     H_    0.201389 0.146915 0.344410 0.174372
C49   C     C_3   0.152092 0.993588 0.460318 -0.400985
C50   C     C_3   0.085980 0.002959 0.529908 -0.895651
H26   H     H_    0.000977 0.968922 0.511255 0.241241
H27   H     H_    0.119171 0.962079 0.582648 0.254719
H28   H     H_    0.086327 0.084737 0.547827 0.264150
H29   H     H_    0.110088 0.025279 0.406629 0.212432
H30   H     H_    0.150771 0.911677 0.442591 0.185012
H31   H     H_    0.556634 0.177753 0.558206 0.170957
H32   H     H_    0.730495 0.339069 0.627759 0.123133
C51   C     C_3   0.127020 0.318679 0.666684 -0.416099
C52   C     C_3   0.127503 0.363303 0.751365 -0.831278
H33   H     H_    0.171327 0.442266 0.757208 0.267105
H34   H     H_    0.044244 0.366445 0.765871 0.245633
H35   H     H_    0.168568 0.314747 0.795722 0.248983
H36   H     H_    0.074265 0.243935 0.657721 0.194347
H37   H     H_    0.210309 0.300996 0.661499 0.207884
C53   C     C_3   0.952492 0.711172 0.458476 -0.433975
C54   C     C_3   0.877853 0.725198 0.381429 -0.879194
H38   H     H_    0.923916 0.767641 0.337487 0.253825
H39   H     H_    0.839575 0.650352 0.353243 0.262062
H40   H     H_    0.813390 0.770754 0.395466 0.250008
H41   H     H_    0.905099 0.689917 0.508259 0.199534
H42   H     H_    0.997801 0.787224 0.478248 0.211545
H43   H     H_    0.246905 0.411923 0.565655 0.224318
C55   C     C_3   0.334830 0.387908 0.009999 -0.378789
C56   C     C_3   0.314805 0.271647 0.995991 -0.881207
H44   H     H_    0.301193 0.251531 0.930752 0.258684
H45   H     H_    0.385280 0.236108 0.024287 0.257999
H46   H     H_    0.241874 0.240061 0.023033 0.247944
H47   H     H_    0.341065 0.405323 0.075343 0.220510
H48   H     H_    0.263543 0.422063 0.981480 0.191672
H49   H     H_    0.573981 0.335201 0.121860 0.143575
H50   H     H_    0.592643 0.515065 0.987220 0.152480

loop_
_geom_bond_atom_site_label_1
_geom_bond_atom_site_label_2
_ccdc_geom_bond_type
C50   H26   S    
C6    H1    S    
C48   H21   S    
C41   C42   A    
C5    H12   S    
C51   C52   S    
C18   C26   A    
C8    C43   S    
C1    O1    A    
C16   H4    S    
C8    H50   S    
C56   H45   S    
C13   C23   S    
C29   C30   A    
C5    C6    A    
C23   O5    A    
C36   C37   A    
C32   N2    A    
C3    C7    A    
C49   H29   S    
C30   C31   A    
C12   O3    A    
C11   C25   A    
C11   C49   S    
C15   C16   A    
C52   H35   S    
O1    Zn1   S    
C46   H16   S    
C23   O6    A    
O8    Zn2   S    
C55   C56   S    
C45   H20   S    
C17   C19   A    
C56   H44   S    
C2    C44   A    
C16   C17   A    
C52   H34   S    
C31   C33   A    
C53   H42   S    
O3    Zn1   S    
C56   H46   S    
C37   H43   S    
C22   H6    S    
C28   N2    A    
N2    Zn2   S    
C25   C47   S    
C21   C22   A    
C46   H17   S    
C13   C25   A    
C48   H23   S    
C1    O2    A    
C11   C20   A    
C4    H7    S    
C27   C39   A    
C10   C34   S    
C48   H22   S    
C34   O7    A    
C28   H10   S    
C49   C50   S    
C8    C9    D    
C29   H11   S    
C27   C35   A    
O4    Zn2   S    
C13   C24   A    
C35   C36   A    
C12   C40   S    
C43   C44   A    
C39   H32   S    
C45   H19   S    
C31   C32   A    
N1    Zn1   S    
C52   H33   S    
C30   C53   S    
C17   C18   A    
C53   H41   S    
C54   H39   S    
C32   C37   A    
C14   C26   A    
C34   O8    A    
C6    C7    A    
C41   C45   S    
C38   N1    A    
C3    H13   S    
C40   C41   A    
O2    Zn2   S    
C50   H27   S    
C1    C26   S    
C46   H18   S    
C42   C43   A    
C4    C10   A    
C3    C4    A    
C55   H48   S    
C47   H25   S    
C27   H8    S    
C21   H2    S    
C9    C55   S    
C7    C9    S    
C28   C29   A    
C47   H24   S    
C51   H36   S    
C45   C46   S    
C42   H15   S    
C2    H14   S    
C14   H3    S    
C12   O4    A    
C33   C38   A    
C19   C20   A    
C18   C22   A    
C19   C24   A    
C5    C10   A    
C49   H30   S    
C24   H31   S    
C36   C51   S    
O5    Zn1   S    
C38   H9    S    
C44   H49   S    
C39   N1    A    
C33   C35   A    
C54   H40   S    
O6    Zn2   S    
C15   H5    S    
C53   C54   S    
C47   C48   S    
C2    C40   A    
C20   C21   A    
O7    Zn1   S    
C50   H28   S    
C54   H38   S    
C14   C15   A    
C55   H47   S    
C51   H37   S    
