data_mof_unit_11011.cif
_audit_creation_date              2013-03-05T16:28:01-0500
_audit_creation_method            fapswitch 2.2
_symmetry_space_group_name_H-M    P1
_symmetry_Int_Tables_number       1
_space_group_crystal_system       triclinic
_cell_length_a                    18.285906
_cell_length_b                    18.220363
_cell_length_c                    18.232089
_cell_angle_alpha                 119.524189
_cell_angle_beta                  90.527041
_cell_angle_gamma                 119.755289
_cell_volume                      4322.13100144

loop_
_atom_site_label
_atom_site_type_symbol
_atom_site_description
_atom_site_fract_x
_atom_site_fract_y
_atom_site_fract_z
_atom_type_partial_charge
Zn1   Zn    Zn3+2 0.457170 0.413230 0.543930 1.015486
Zn2   Zn    Zn3+2 0.456070 0.586770 0.542830 0.978619
Zn3   Zn    Zn3+2 0.456070 0.413270 0.369320 1.037059
Zn4   Zn    Zn3+2 0.630690 0.586730 0.543930 0.977625
O1    O     O_3   0.500000 0.500000 0.500000 -0.513515
O2    O     O_R   0.676910 0.731570 0.616180 -0.640885
O3    O     O_R   0.384580 0.268400 0.445300 -0.646627
O4    O     O_R   0.383810 0.560730 0.615410 -0.653270
O5    O     O_R   0.554700 0.439300 0.323100 -0.618922
O6    O     O_R   0.382730 0.560770 0.443450 -0.653026
O7    O     O_R   0.678000 0.560660 0.617260 -0.638289
O8    O     O_R   0.382730 0.439340 0.322020 -0.636749
O9    O     O_R   0.556550 0.439230 0.617260 -0.604988
O10   O     O_R   0.384580 0.439270 0.616180 -0.649788
O11   O     O_R   0.676910 0.560700 0.445300 -0.646202
O12   O     O_R   0.554700 0.731600 0.615410 -0.606038
O13   O     O_R   0.383810 0.268430 0.323100 -0.598779
C1    C     C_R   0.639756 0.780044 0.638631 0.858625
C2    C     C_R   0.362071 0.219991 0.360097 0.916090
C3    C     C_R   0.359487 0.499305 0.639544 0.796211
C4    C     C_R   0.639761 0.499469 0.360132 0.852144
C5    C     C_R   0.359015 0.500023 0.358891 0.823059
C6    C     C_R   0.641220 0.499848 0.641772 0.888584
C7    C     C_3   0.762016 0.468808 0.671876 0.522812
C8    C     C_3   0.728872 0.402779 0.709607 -0.304056
H1    H     H_    0.712796 0.324122 0.676917 0.216738
C9    C     C_3   0.802254 0.500473 0.800918 -0.173800
C10   C     C_3   0.836577 0.566015 0.762251 -0.278821
C11   C     C_3   0.770652 0.596721 0.790617 -0.320233
C12   C     C_3   0.737864 0.531080 0.828612 0.309854
C13   C     C_3   0.665526 0.435883 0.738650 0.240529
C14   C     C_3   0.697424 0.499439 0.699424 -0.171318
H2    H     H_    0.907874 0.619312 0.773023 0.174920
H3    H     H_    0.785957 0.675035 0.823177 0.194779
C15   C     C_R   0.264076 0.052707 0.338179 -0.059896
C16   C     C_R   0.315649 0.108509 0.305249 -0.184798
C17   C     C_R   0.321762 0.054442 0.219688 0.205356
C18   C     C_R   0.265896 0.945476 0.164953 0.370522
C19   C     C_R   0.204148 0.891581 0.195704 -0.159430
C20   C     C_R   0.209131 0.946834 0.284392 -0.096729
C21   C     C_3   0.137047 0.942715 0.324063 0.330795
C22   C     C_3   0.199018 0.060499 0.385271 0.334595
H4    H     H_    0.126243 0.906099 0.360925 -0.000182
H5    H     H_    0.224903 0.090828 0.456749 0.029134
C23   C     C_R   0.786336 0.565488 0.337970 0.127726
C24   C     C_R   0.694506 0.494023 0.303947 -0.144020
C25   C     C_R   0.656172 0.413133 0.212207 -0.243845
H6    H     H_    0.585168 0.352477 0.183406 0.234016
C26   C     C_R   0.709506 0.408141 0.157054 0.285098
C27   C     C_R   0.802924 0.488659 0.194056 -0.215192
C28   C     C_R   0.837853 0.563144 0.285730 0.099907
C29   C     C_3   0.920382 0.662444 0.360061 -0.454602
C30   C     C_3   0.861293 0.664836 0.419586 -0.457098
H7    H     H_    0.971084 0.651997 0.378125 0.214021
H8    H     H_    0.945643 0.724546 0.349453 0.183687
H9    H     H_    0.877613 0.655575 0.472037 0.208429
H10   H     H_    0.852525 0.728016 0.442505 0.202368
C31   C     C_R   0.786706 0.946519 0.726047 -0.022335
C32   C     C_R   0.695025 0.891711 0.685761 -0.234524
C33   C     C_R   0.659830 0.946508 0.687481 0.213459
C34   C     C_R   0.715299 0.055233 0.738822 0.203624
C35   C     C_R   0.804253 0.108823 0.792420 -0.300330
C36   C     C_R   0.839206 0.052522 0.780312 0.034429
C37   C     C_3   0.894341 0.056758 0.845648 0.923091
C38   C     C_3   0.837185 0.937822 0.782880 -0.642307
H11   H     H_    0.873855 0.906267 0.746545 0.209652
H12   H     H_    0.794669 0.895056 0.809615 0.171609
C39   C     C_R   0.331333 0.586705 0.307180 0.089234
C40   C     C_R   0.303193 0.497976 0.302393 -0.098323
C41   C     C_R   0.223015 0.404258 0.237646 -0.280606
H13   H     H_    0.203509 0.334963 0.232966 0.197834
C42   C     C_R   0.164433 0.402074 0.185469 0.272410
C43   C     C_R   0.192066 0.495477 0.196067 -0.171099
C44   C     C_R   0.276457 0.585298 0.254114 0.043338
C45   C     C_3   0.302108 0.690110 0.327427 -0.462447
C46   C     C_3   0.363222 0.691571 0.385750 -0.387251
H14   H     H_    0.338963 0.747721 0.311719 0.207954
H15   H     H_    0.245650 0.688757 0.350568 0.217234
H16   H     H_    0.435266 0.749242 0.402736 0.243018
H17   H     H_    0.342611 0.691502 0.442906 0.214619
C47   C     C_R   0.241453 0.521676 0.688078 0.108625
C48   C     C_R   0.298739 0.492673 0.690340 -0.131838
C49   C     C_R   0.292187 0.449891 0.738560 -0.212644
H18   H     H_    0.331497 0.420698 0.737917 0.199029
C50   C     C_R   0.238762 0.450497 0.792856 -0.218783
H19   H     H_    0.238041 0.421502 0.832554 0.183243
C51   C     C_R   0.191584 0.494248 0.799786 -0.059386
C52   C     C_R   0.189368 0.522926 0.742031 0.049337
C53   C     C_3   0.199328 0.615845 0.756326 -0.502443
C54   C     C_3   0.255714 0.613229 0.694980 0.317448
H20   H     H_    0.134432 0.598746 0.728119 0.219104
H21   H     H_    0.238103 0.684107 0.826653 0.179356
H22   H     H_    0.327169 0.681178 0.729336 0.087565
Zn5   Zn    Zn3+2 0.042790 0.586680 0.956030 0.976094
Zn6   Zn    Zn3+2 0.043880 0.586640 0.130630 0.954506
Zn7   Zn    Zn3+2 0.043880 0.413140 0.957130 1.019026
Zn8   Zn    Zn3+2 0.869270 0.413190 0.956030 1.116000
O14   O     O_3   0.999960 0.499910 0.999960 -0.522984
O15   O     O_R   0.823040 0.439210 0.054650 -0.573176
O16   O     O_R   0.115380 0.560640 0.883770 -0.645342
O17   O     O_R   0.116150 0.731480 0.176860 -0.670614
O18   O     O_R   0.945260 0.268310 0.884540 -0.598847
O19   O     O_R   0.117230 0.560570 0.177940 -0.650062
O20   O     O_R   0.821960 0.439250 0.882690 -0.575108
O21   O     O_R   0.117230 0.439140 0.056500 -0.623864
O22   O     O_R   0.943400 0.560680 0.882690 -0.656426
O23   O     O_R   0.115380 0.731510 0.054650 -0.603812
O24   O     O_R   0.823040 0.268340 0.883770 -0.584310
O25   O     O_R   0.945260 0.560610 0.176860 -0.657094
O26   O     O_R   0.116150 0.439180 0.884540 -0.650021
C55   C     C_R   0.859844 0.496918 0.139574 0.829332
C56   C     C_R   0.140058 0.499934 0.859935 0.789565
C57   C     C_R   0.140813 0.779995 0.139796 0.856775
C58   C     C_R   0.859925 0.220031 0.858052 0.906651
C59   C     C_R   0.139869 0.498777 0.141053 0.895461
C60   C     C_R   0.858685 0.500125 0.858314 0.870683
O27   O     O_3   0.165856 0.107742 0.367081 -0.588008
C61   C     C_3   0.163515 0.180413 0.445786 0.103987
H23   H     H_    0.161886 0.233916 0.433930 0.159351
H24   H     H_    0.224995 0.229336 0.504337 0.145652
C62   C     C_3   0.078965 0.126743 0.466114 -0.368941
H25   H     H_    0.019008 0.083223 0.408223 0.246107
H26   H     H_    0.078023 0.071130 0.476500 0.205581
C63   C     C_3   0.074685 0.204721 0.549797 -0.912325
H27   H     H_    0.131746 0.245075 0.609067 0.276082
H28   H     H_    0.011521 0.164067 0.561190 0.270403
H29   H     H_    0.076687 0.262344 0.541937 0.269163
N1    N     N_R   0.668027 0.319774 0.065772 0.248031
O28   O     O_R   0.589629 0.283167 0.019103 -0.311976
O29   O     O_R   0.699627 0.264373 0.035447 -0.380595
N2    N     N_R   0.568259 0.893398 0.638639 0.243587
O30   O     O_R   0.548989 0.893239 0.569720 -0.397545
O31   O     O_R   0.507285 0.865832 0.674142 -0.388695
O32   O     O_3   0.764947 0.430859 0.583988 -0.631358
C64   C     C_3   0.849141 0.449353 0.580820 0.108279
H30   H     H_    0.837097 0.378937 0.520168 0.176230
H31   H     H_    0.888787 0.463047 0.638615 0.120281
C65   C     C_3   0.902079 0.539297 0.571810 -0.363038
H32   H     H_    0.861873 0.522323 0.512469 0.240674
H33   H     H_    0.915224 0.610735 0.632062 0.219365
C66   C     C_3   0.990832 0.557277 0.560781 -0.923017
H34   H     H_    0.033386 0.577873 0.620720 0.269836
H35   H     H_    0.026435 0.621611 0.552747 0.259800
H36   H     H_    0.979347 0.486968 0.500523 0.278694
N3    N     N_R   0.680268 0.109830 0.737156 0.265278
O33   O     O_R   0.608000 0.094628 0.756708 -0.264435
O34   O     O_R   0.718481 0.171522 0.712084 -0.387735
O35   O     O_3   0.983670 0.104759 0.846355 -0.629114
C67   C     C_3   0.033183 0.088813 0.889693 0.116023
H37   H     H_    0.027538 0.017338 0.839367 0.118423
H38   H     H_    0.009800 0.080792 0.943175 0.208059
C68   C     C_3   0.131455 0.180195 0.931338 -0.304814
H39   H     H_    0.156625 0.186392 0.877982 0.224500
H40   H     H_    0.137563 0.252563 0.979759 0.257287
C69   C     C_3   0.188971 0.168237 0.979670 -0.857150
H41   H     H_    0.166172 0.163812 0.034498 0.289372
H42   H     H_    0.259682 0.235914 0.009074 0.275935
H43   H     H_    0.185293 0.097360 0.932028 0.267165
O36   O     O_3   0.889835 0.106165 0.933886 -0.599664
C70   C     C_3   0.805191 0.052414 0.941689 0.003123
H44   H     H_    0.799301 0.994009 0.950925 0.158148
H45   H     H_    0.748597 0.013826 0.882699 0.135720
C71   C     C_3   0.797925 0.128687 0.024038 -0.231246
H46   H     H_    0.849103 0.162108 0.085148 0.263506
H47   H     H_    0.810661 0.192283 0.019281 0.251511
C72   C     C_3   0.705479 0.076403 0.032109 -0.882522
H48   H     H_    0.653196 0.044947 0.972924 0.288494
H49   H     H_    0.702857 0.133602 0.093087 0.286157
H50   H     H_    0.691410 0.012766 0.037381 0.251339
N4    N     N_R   0.075690 0.308634 0.129992 0.215136
O37   O     O_R   0.009898 0.312070 0.108721 -0.408911
O38   O     O_R   0.057098 0.221769 0.112764 -0.420425
O39   O     O_3   0.209709 0.582837 0.611674 -0.626510
C73   C     C_3   0.261460 0.654734 0.591521 0.120582
H51   H     H_    0.231584 0.615413 0.518711 0.167354
H52   H     H_    0.331667 0.677777 0.603096 0.187543
C74   C     C_3   0.258720 0.749490 0.643513 -0.403358
H53   H     H_    0.189043 0.724298 0.640780 0.237023
H54   H     H_    0.300922 0.798739 0.714801 0.235776
C75   C     C_3   0.292157 0.813049 0.604661 -0.817703
H55   H     H_    0.361459 0.838576 0.605478 0.319157
H56   H     H_    0.291562 0.882282 0.645245 0.276997
H57   H     H_    0.248044 0.766749 0.534701 0.235702
N5    N     N_R   0.725852 0.565082 0.915687 0.220501
O40   O     O_R   0.740828 0.655506 0.966442 -0.413259
O41   O     O_R   0.701624 0.505938 0.943701 -0.325767
N6    N     N_R   0.572143 0.364986 0.724526 0.245661
O42   O     O_R   0.540886 0.385350 0.790386 -0.314043
O43   O     O_R   0.519469 0.280595 0.645413 -0.346297
N7    N     N_R   0.384302 0.108575 0.188097 0.230259
O44   O     O_R   0.468468 0.177274 0.237049 -0.409418
O45   O     O_R   0.359058 0.083009 0.107407 -0.329047
O46   O     O_3   0.269363 0.893423 0.080066 -0.578582
C76   C     C_3   0.323976 0.859353 0.080715 0.095714
H58   H     H_    0.279912 0.775821 0.052743 0.146741
H59   H     H_    0.370325 0.900524 0.148720 0.103631
C77   C     C_3   0.380633 0.875175 0.021787 -0.261093
H60   H     H_    0.338155 0.847569 0.957879 0.233765
H61   H     H_    0.433493 0.958902 0.056501 0.257553
C78   C     C_3   0.424362 0.817649 0.001317 -0.985267
H62   H     H_    0.467572 0.844329 0.064381 0.276218
H63   H     H_    0.466270 0.832678 0.960062 0.275495
H64   H     H_    0.372416 0.733243 0.963312 0.263660
O47   O     O_3   0.060701 0.906300 0.260986 -0.571313
C79   C     C_3   0.982837 0.828502 0.259104 0.032762
H65   H     H_    0.975289 0.859231 0.326455 0.123860
H66   H     H_    0.985987 0.761653 0.237692 0.156920
C80   C     C_3   0.901447 0.791977 0.192107 -0.288966
H67   H     H_    0.897258 0.857968 0.213179 0.238531
H68   H     H_    0.908885 0.763056 0.124870 0.247396
C81   C     C_3   0.815196 0.706006 0.186141 -0.855838
H69   H     H_    0.815859 0.637059 0.159978 0.256300
H70   H     H_    0.757058 0.684130 0.139873 0.312815
H71   H     H_    0.807309 0.732075 0.253040 0.242758

loop_
_geom_bond_atom_site_label_1
_geom_bond_atom_site_label_2
_geom_bond_distance
_ccdc_geom_bond_type
C8    C13   1.541395 S    
C64   C65   1.530797 S    
C76   H59   1.118589 S    
C51   C52   1.394975 A    
N7    O44   1.301353 A    
Zn7   O18   1.938473 S    
C69   H42   1.110381 S    
O17   C57   1.280637 A    
C21   C22   1.528899 S    
C71   H46   1.111066 S    
C46   H16   1.110542 S    
Zn7   O21   1.945374 S    
N1    O28   1.301200 A    
Zn8   O14   1.954132 S    
Zn6   O14   1.952574 S    
C64   H30   1.110938 S    
C25   C26   1.409426 A    
O39   C73   1.413116 S    
O6    C5    1.272563 A    
C54   O39   1.416479 S    
O4    C3    1.280189 A    
C49   H18   1.083186 S    
Zn1   O1    1.945481 S    
C10   C11   1.558686 S    
C71   H47   1.111744 S    
C17   C18   1.413009 A    
C35   C58   1.454083 S    
C11   C14   1.548490 S    
C3    C48   1.449895 S    
C2    C16   1.455152 S    
O25   C55   1.285388 A    
O36   C70   1.418367 S    
N3    O33   1.301066 A    
C12   C13   1.525549 S    
C73   H51   1.111192 S    
C30   H9    1.111649 S    
C76   C77   1.529703 S    
N4    O37   1.300702 A    
C23   C28   1.346378 A    
C39   C44   1.369601 A    
O8    C5    1.269327 A    
N5    O40   1.300252 A    
O9    C6    1.272854 A    
C43   C44   1.391368 A    
O24   C58   1.279789 A    
C77   H61   1.111585 S    
C15   C22   1.496283 S    
C34   N3    1.436236 S    
C61   H23   1.110992 S    
O23   C57   1.278251 A    
C62   C63   1.525992 S    
Zn3   O8    1.944892 S    
Zn8   O15   1.938556 S    
O20   C60   1.276986 A    
Zn8   O24   1.937480 S    
C66   H34   1.109444 S    
Zn5   O22   1.947260 S    
C15   C16   1.394219 A    
Zn6   O19   1.945139 S    
C80   H67   1.111685 S    
C38   H12   1.108695 S    
Zn7   O14   1.951761 S    
C46   H17   1.111765 S    
Zn3   O13   1.935728 S    
C41   H13   1.083909 S    
C53   H20   1.110707 S    
Zn2   O12   1.938519 S    
C5    C40   1.417526 S    
C34   C35   1.417052 A    
O46   C76   1.416037 S    
C75   H57   1.111037 S    
C9    C60   1.467347 S    
C79   H66   1.113872 S    
C17   N7    1.436943 S    
C23   C30   1.488166 S    
C32   C33   1.421019 A    
C37   O35   1.415537 S    
C69   H43   1.110805 S    
C72   H49   1.110434 S    
C21   H4    1.117739 S    
C67   H38   1.114030 S    
C77   H60   1.109912 S    
C22   H5    1.116681 S    
C33   N2    1.431132 S    
N3    O34   1.301294 A    
C29   H7    1.111585 S    
C47   C48   1.395861 A    
O26   C56   1.276876 A    
C50   C51   1.407477 A    
C18   C19   1.416769 A    
O2    C1    1.285919 A    
Zn5   O23   1.939426 S    
C62   H26   1.111186 S    
C44   C45   1.495720 S    
C28   C29   1.491009 S    
C47   C52   1.375491 A    
C70   C71   1.527645 S    
O10   C3    1.277134 A    
C71   C72   1.526786 S    
O35   C67   1.415174 S    
Zn4   O2    1.937376 S    
Zn6   O25   1.939188 S    
C67   C68   1.528723 S    
C19   C20   1.392207 A    
C30   H10   1.111683 S    
C78   H62   1.110767 S    
C51   C56   1.450870 S    
C19   C57   1.453437 S    
C31   C32   1.392824 A    
C23   C24   1.383630 A    
Zn7   O26   1.936952 S    
C11   H3    1.110175 S    
O22   C60   1.273612 A    
C33   C34   1.410640 A    
C21   O47   1.418018 S    
C61   C62   1.533308 S    
C42   N4    1.444033 S    
C77   C78   1.526154 S    
O19   C59   1.269945 A    
C45   C46   1.516905 S    
C7    C14   1.532235 S    
C81   H69   1.109262 S    
C11   C12   1.543442 S    
Zn3   O5    1.939236 S    
C31   C38   1.496746 S    
N5    O41   1.300438 A    
C25   H6    1.083562 S    
C68   C69   1.526348 S    
Zn5   O16   1.940085 S    
C74   C75   1.526550 S    
O15   C55   1.276612 A    
C35   C36   1.392754 A    
C27   C28   1.388433 A    
C62   H25   1.111626 S    
C7    C8    1.545180 S    
C53   H21   1.109010 S    
O18   C58   1.283328 A    
C45   H14   1.111620 S    
C73   C74   1.534778 S    
C50   H19   1.083172 S    
C65   H33   1.110889 S    
C63   H29   1.111051 S    
C47   C54   1.492382 S    
C78   H63   1.110540 S    
C20   C21   1.496347 S    
C49   C50   1.397212 A    
C68   H40   1.111403 S    
C10   H2    1.109928 S    
C74   H53   1.110107 S    
O3    C2    1.279838 A    
Zn4   O7    1.942683 S    
C26   C27   1.428731 A    
C66   H36   1.110752 S    
Zn2   O1    1.951908 S    
Zn1   O9    1.947014 S    
N2    O30   1.300133 A    
Zn2   O6    1.945416 S    
Zn3   O1    1.952722 S    
C69   H41   1.110533 S    
C29   C30   1.539121 S    
C54   H22   1.116844 S    
C63   H28   1.110279 S    
C4    C24   1.441742 S    
C79   C80   1.527153 S    
C7    O32   1.412435 S    
C31   C36   1.374617 A    
C64   H31   1.116002 S    
C26   N1    1.435646 S    
C79   H65   1.114715 S    
C24   C25   1.408738 A    
C16   C17   1.419283 A    
N7    O45   1.301166 A    
C75   H56   1.110272 S    
C81   H70   1.110029 S    
Zn1   O3    1.939468 S    
C12   N5    1.457572 S    
C39   C40   1.385792 A    
C13   C14   1.531719 S    
Zn2   O4    1.936702 S    
C7    C10   1.548017 S    
C6    C14   1.468529 S    
C42   C43   1.417565 A    
N2    O31   1.300856 A    
C65   C66   1.524761 S    
N1    O29   1.301250 A    
C29   H8    1.108893 S    
C22   O27   1.419315 S    
O16   C56   1.281104 A    
O32   C64   1.411725 S    
Zn1   O10   1.939984 S    
C39   C46   1.491290 S    
C43   C59   1.421083 S    
C18   O46   1.383340 S    
O21   C59   1.272549 A    
C37   C38   1.543950 S    
Zn4   O11   1.938599 S    
C66   H35   1.110332 S    
C15   C20   1.373321 A    
C8    H1    1.110104 S    
N6    O42   1.300069 A    
C80   H68   1.111974 S    
C67   H37   1.111596 S    
C70   H44   1.111556 S    
O5    C4    1.278920 A    
C72   H48   1.111069 S    
O11   C4    1.279932 A    
N4    O38   1.301221 A    
C80   C81   1.526325 S    
C37   O36   1.433188 S    
O7    C6    1.278141 A    
C27   C55   1.450355 S    
O13   C2    1.278827 A    
C73   H52   1.114286 S    
C74   H54   1.111193 S    
C76   H58   1.111732 S    
C38   H11   1.111070 S    
C40   C41   1.398336 A    
C45   H15   1.112410 S    
C61   H24   1.115080 S    
N6    O43   1.300402 A    
Zn8   O20   1.942680 S    
C65   H32   1.112012 S    
C36   C37   1.500483 S    
Zn6   O17   1.935685 S    
C1    C32   1.455789 S    
Zn4   O1    1.954130 S    
C81   H71   1.111013 S    
O47   C79   1.409122 S    
C72   H50   1.110885 S    
O12   C1    1.278402 A    
C48   C49   1.406963 A    
C13   N6    1.457891 S    
C9    C10   1.552715 S    
Zn5   O14   1.945481 S    
C41   C42   1.398453 A    
C68   H39   1.111679 S    
C78   H64   1.111380 S    
C53   C54   1.527669 S    
O27   C61   1.413834 S    
C75   H55   1.109169 S    
C52   C53   1.491844 S    
C70   H45   1.110880 S    
C63   H27   1.109828 S    
C9    C12   1.528886 S    
C8    C9    1.551775 S    
