data_mof_unit_48798.cif
_audit_creation_date              2012-12-11T14:10:38-0500
_audit_creation_method            fapswitch 2.2
_symmetry_space_group_name_H-M    P1
_symmetry_Int_Tables_number       1
_space_group_crystal_system       triclinic
_cell_length_a                    19.946277
_cell_length_b                    17.251705
_cell_length_c                    15.589603
_cell_angle_alpha                 90.00293
_cell_angle_beta                  52.128296
_cell_angle_gamma                 89.996122
_cell_volume                      4234.6652789

loop_
_atom_site_label
_atom_site_type_symbol
_atom_type_description
_atom_site_fract_x
_atom_site_fract_y
_atom_site_fract_z
_atom_type_partial_charge
C1    C     C_R   0.338085 0.171701 0.055122 -0.108253
C2    C     C_R   0.645699 0.812579 0.976116 -0.117757
C3    C     C_R   0.644320 0.188288 0.978287 -0.116696
C4    C     C_R   0.357962 0.810274 0.018444 -0.121183
C5    C     C_R   0.840156 0.674495 0.051154 -0.106195
C6    C     C_R   0.141075 0.309734 0.983069 -0.119563
C7    C     C_R   0.161488 0.672287 0.945758 -0.106618
C8    C     C_R   0.839399 0.326503 0.052631 -0.107409
C9    C     C_3   0.332107 0.277843 0.532954 0.108958
C10   C     C_3   0.748026 0.765488 0.446299 0.116989
C11   C     C_3   0.746956 0.236819 0.447589 0.117075
C12   C     C_3   0.246926 0.772246 0.554731 0.117099
C13   C     C_3   0.825917 0.774130 0.535569 0.110898
C14   C     C_3   0.252473 0.271847 0.445846 0.117167
C15   C     C_3   0.167998 0.777620 0.466663 0.111264
C16   C     C_3   0.826737 0.223894 0.533954 0.109536
C17   C     C_2   0.274246 0.700476 0.960288 -0.053687
C18   C     C_2   0.728078 0.297007 0.036072 -0.050343
C19   C     C_2   0.729708 0.704489 0.033383 -0.055322
C20   C     C_2   0.241239 0.276570 0.019736 -0.054612
C21   C     C_2   0.745990 0.220402 0.012437 -0.055239
C22   C     C_2   0.257008 0.777253 0.983255 -0.051827
C23   C     C_2   0.224694 0.199607 0.041517 -0.048434
C24   C     C_2   0.748493 0.780816 0.008181 -0.052454
C25   C     C_R   0.351196 0.826016 0.223308 -0.130845
C26   C     C_R   0.644974 0.177707 0.776940 -0.132244
C27   C     C_R   0.645042 0.822350 0.776909 -0.132233
C28   C     C_R   0.391701 0.197188 0.213273 -0.138831
C29   C     C_R   0.891087 0.303418 0.213895 -0.140696
C30   C     C_R   0.108168 0.697221 0.786816 -0.137542
C31   C     C_R   0.148963 0.326170 0.776783 -0.130689
C32   C     C_R   0.890795 0.696519 0.214020 -0.138992
C33   C     C_R   0.347118 0.897858 0.922444 -0.135632
C34   C     C_R   0.655090 0.100414 0.074287 -0.132956
C35   C     C_R   0.656612 0.900486 0.071958 -0.132361
C36   C     C_R   0.330908 0.089652 0.950539 -0.129120
C37   C     C_R   0.832705 0.407896 0.947007 -0.131851
C38   C     C_R   0.168760 0.589992 0.050125 -0.130467
C39   C     C_R   0.151826 0.397373 0.079098 -0.136046
C40   C     C_R   0.833378 0.592850 0.945731 -0.132693
C41   C     C_R   0.397975 0.105102 0.309150 -0.135715
C42   C     C_R   0.634830 0.912479 0.681784 -0.123633
C43   C     C_R   0.634411 0.087794 0.681778 -0.123587
C44   C     C_R   0.359117 0.919208 0.317285 -0.119520
C45   C     C_R   0.895907 0.603189 0.310234 -0.124460
C46   C     C_R   0.140924 0.419250 0.682751 -0.119714
C47   C     C_R   0.101864 0.605158 0.690936 -0.135118
C48   C     C_R   0.896259 0.396736 0.310048 -0.124217
C49   C     C_R   0.289234 0.149598 0.025359 0.096337
C50   C     C_R   0.688337 0.831335 0.015902 0.103568
C51   C     C_R   0.685918 0.170109 0.019706 0.104031
C52   C     C_R   0.317463 0.827486 0.975345 0.104824
C53   C     C_R   0.792651 0.653666 0.019059 0.099434
C54   C     C_R   0.180821 0.326613 0.027297 0.105480
C55   C     C_R   0.210149 0.650264 0.975835 0.097853
C56   C     C_R   0.791547 0.347563 0.021098 0.098788
C57   C     C_R   0.310852 0.859033 0.324698 0.055928
C58   C     C_R   0.681943 0.147772 0.675269 0.060283
C59   C     C_R   0.682470 0.852605 0.675326 0.060272
C60   C     C_R   0.375382 0.180080 0.310480 0.066017
C61   C     C_R   0.874108 0.321921 0.311082 0.063554
C62   C     C_R   0.124320 0.680181 0.689672 0.065535
C63   C     C_R   0.189237 0.359119 0.675355 0.056220
C64   C     C_R   0.873574 0.677981 0.311355 0.063341
C65   C     C_3   0.299006 0.202834 0.517389 -0.230807
C66   C     C_3   0.779004 0.841244 0.462722 -0.230628
C67   C     C_3   0.776560 0.159741 0.463005 -0.229052
C68   C     C_3   0.213546 0.846948 0.539457 -0.228550
C69   C     C_3   0.795316 0.698158 0.518372 -0.230240
C70   C     C_3   0.285825 0.346748 0.460725 -0.226711
C71   C     C_3   0.201121 0.702807 0.482639 -0.231274
C72   C     C_3   0.797530 0.301220 0.517741 -0.229950
C73   C     C_3   0.710340 0.736695 0.560396 -0.200314
C74   C     C_3   0.370829 0.305415 0.416496 -0.198281
C75   C     C_3   0.284942 0.743943 0.440331 -0.198354
C76   C     C_3   0.711216 0.264943 0.561313 -0.200763
C77   C     C_3   0.214947 0.243722 0.560163 -0.198636
C78   C     C_3   0.864776 0.802312 0.419434 -0.198018
C79   C     C_3   0.863619 0.196381 0.418235 -0.201709
C80   C     C_3   0.128752 0.805354 0.583255 -0.196412
C81   C     C_3   0.742058 0.811875 0.576981 0.108916
C82   C     C_3   0.335672 0.231221 0.402632 0.109762
C83   C     C_3   0.250820 0.818153 0.424718 0.108131
C84   C     C_3   0.741588 0.188405 0.576878 0.110261
C85   C     C_3   0.249073 0.318133 0.575359 0.108934
C86   C     C_3   0.832050 0.727260 0.403951 0.111370
C87   C     C_3   0.832281 0.272799 0.403762 0.112184
C88   C     C_3   0.163955 0.731352 0.597526 0.109235
H1    H     H_    0.326258 0.219143 0.107900 0.108583
H2    H     H_    0.648053 0.758190 0.940413 0.097772
H3    H     H_    0.646497 0.242589 0.942514 0.098094
H4    H     H_    0.356585 0.755925 0.053641 0.098160
H5    H     H_    0.829475 0.722834 0.102155 0.106947
H6    H     H_    0.142362 0.255421 0.947841 0.098423
H7    H     H_    0.173004 0.720045 0.893556 0.108210
H8    H     H_    0.828237 0.278610 0.104472 0.107199
H9    H     H_    0.333571 0.772696 0.206007 0.100224
H10   H     H_    0.661557 0.231196 0.795270 0.099136
H11   H     H_    0.661267 0.768529 0.794981 0.099033
H12   H     H_    0.389992 0.253852 0.184985 0.102526
H13   H     H_    0.888720 0.246562 0.186619 0.102348
H14   H     H_    0.109897 0.753860 0.815149 0.102048
H15   H     H_    0.166779 0.273043 0.794255 0.100398
H16   H     H_    0.888458 0.753372 0.186726 0.101929
H17   H     H_    0.646112 0.711203 0.619510 0.136390
H18   H     H_    0.435836 0.328717 0.355845 0.141415
H19   H     H_    0.349773 0.719674 0.380937 0.135882
H20   H     H_    0.647790 0.291641 0.621277 0.135798
H21   H     H_    0.150229 0.219338 0.619870 0.135439
H22   H     H_    0.929310 0.826823 0.359392 0.139675
H23   H     H_    0.927332 0.170611 0.357447 0.140447
H24   H     H_    0.063602 0.828483 0.643759 0.140676
H25   H     H_    0.304640 0.143718 0.540489 0.121932
H26   H     H_    0.771572 0.900405 0.441549 0.121979
H27   H     H_    0.767380 0.101292 0.441899 0.121245
H28   H     H_    0.219355 0.906453 0.561359 0.124626
H29   H     H_    0.802565 0.639392 0.540721 0.122186
H30   H     H_    0.279779 0.406158 0.438807 0.124467
H31   H     H_    0.195770 0.643601 0.459487 0.121657
H32   H     H_    0.806753 0.359289 0.539700 0.121965
N1    N     N_R   0.408680 0.130810 0.995780 -0.047060
N2    N     N_R   0.591320 0.869190 0.004220 -0.044152
N3    N     N_R   0.591320 0.130810 0.004220 -0.043097
N4    N     N_R   0.408680 0.869190 0.995780 -0.043430
N5    N     N_R   0.908680 0.630810 0.995780 -0.045741
N6    N     N_R   0.091320 0.369190 0.004220 -0.042362
N7    N     N_R   0.091320 0.630810 0.004220 -0.046059
N8    N     N_R   0.908680 0.369190 0.995780 -0.046844
N9    N     N_R   0.421410 0.867210 0.153620 -0.042474
N10   N     N_R   0.578590 0.132790 0.846380 -0.041622
N11   N     N_R   0.578590 0.867210 0.846380 -0.041480
N12   N     N_R   0.421410 0.132790 0.153620 -0.041395
N13   N     N_R   0.921410 0.367210 0.153620 -0.041592
N14   N     N_R   0.078590 0.632790 0.846380 -0.041431
N15   N     N_R   0.078590 0.367210 0.846380 -0.042480
N16   N     N_R   0.921410 0.632790 0.153620 -0.041930
N17   N     N_R   0.403840 0.921910 0.935760 -0.043390
N18   N     N_R   0.596160 0.078090 0.064240 -0.042782
N19   N     N_R   0.596160 0.921910 0.064240 -0.044254
N20   N     N_R   0.403840 0.078090 0.935760 -0.045447
N21   N     N_R   0.903840 0.421910 0.935760 -0.044734
N22   N     N_R   0.096160 0.578090 0.064240 -0.044530
N23   N     N_R   0.096160 0.421910 0.064240 -0.042356
N24   N     N_R   0.903840 0.578090 0.935760 -0.043200
N25   N     N_R   0.426250 0.076100 0.213650 -0.039151
N26   N     N_R   0.573750 0.923900 0.786350 -0.041010
N27   N     N_R   0.573750 0.076100 0.786350 -0.041268
N28   N     N_R   0.426250 0.923900 0.213650 -0.043174
N29   N     N_R   0.926250 0.576100 0.213650 -0.040583
N30   N     N_R   0.073750 0.423900 0.786350 -0.043266
N31   N     N_R   0.073750 0.576100 0.786350 -0.039246
N32   N     N_R   0.926250 0.423900 0.213650 -0.040127
Ni1   Ni    Ni4+2 0.500000 0.131570 0.000000 0.218927
Ni2   Ni    Ni4+2 0.500000 0.868430 0.000000 0.218337
Ni3   Ni    Ni4+2 0.000000 0.631570 0.000000 0.218253
Ni4   Ni    Ni4+2 0.000000 0.368430 0.000000 0.218055
Ni5   Ni    Ni4+2 0.488900 0.000000 0.862310 0.216413
Ni6   Ni    Ni4+2 0.511100 0.000000 0.137690 0.214255
Ni7   Ni    Ni4+2 0.988900 0.500000 0.862310 0.214002
Ni8   Ni    Ni4+2 0.011100 0.500000 0.137690 0.212355
H33   H     H_    0.333689 0.925386 0.872194 0.099781
H34   H     H_    0.669358 0.072159 0.123290 0.099975
H35   H     H_    0.671405 0.928886 0.120336 0.100803
H36   H     H_    0.312134 0.060824 0.906746 0.100666
H37   H     H_    0.815330 0.434594 0.900511 0.098022
H38   H     H_    0.187425 0.561164 0.094046 0.100211
H39   H     H_    0.164957 0.424968 0.129619 0.098710
H40   H     H_    0.816305 0.566365 0.898790 0.097530
H41   H     H_    0.402773 0.077147 0.367246 0.090559
H42   H     H_    0.639522 0.938998 0.615790 0.090170
H43   H     H_    0.638819 0.061327 0.615956 0.089721
H44   H     H_    0.348743 0.953196 0.382628 0.095359
H45   H     H_    0.898391 0.573641 0.369393 0.089675
H46   H     H_    0.151265 0.453214 0.617414 0.095062
H47   H     H_    0.097044 0.577197 0.632857 0.090114
H48   H     H_    0.898732 0.426345 0.369179 0.089369
C89   C     C_1   0.374166 0.282646 0.583676 0.027405
N33   N     N_1   0.407264 0.286419 0.623813 -0.079238
C90   C     C_1   0.704199 0.760599 0.397699 0.018188
N34   N     N_1   0.669795 0.756729 0.359274 -0.085908
C91   C     C_1   0.702074 0.244131 0.400602 0.020744
N35   N     N_1   0.666811 0.249911 0.363491 -0.086442
C92   C     C_1   0.291637 0.769225 0.602241 0.015828
N36   N     N_1   0.326749 0.766815 0.639812 -0.087247
C93   C     C_1   0.866181 0.780652 0.588497 0.029176
N37   N     N_1   0.897775 0.785787 0.630458 -0.085377
C94   C     C_1   0.207374 0.268411 0.398871 0.015970
N38   N     N_1   0.171934 0.265672 0.361755 -0.088606
C95   C     C_1   0.126568 0.782119 0.415083 0.028926
N39   N     N_1   0.094037 0.785659 0.374192 -0.085528
C96   C     C_1   0.868195 0.215039 0.585063 0.026663
N40   N     N_1   0.900796 0.208063 0.625525 -0.079547
C97   C     C_1   0.356954 0.666562 0.911629 0.059160
N41   N     N_1   0.422967 0.639440 0.872672 -0.093337
C98   C     C_1   0.645050 0.330492 0.085362 0.052694
N42   N     N_1   0.578821 0.357274 0.124748 -0.100493
C99   C     C_1   0.645980 0.671801 0.085076 0.060096
N43   N     N_1   0.579187 0.645647 0.126446 -0.093333
C100  C     C_1   0.323835 0.311581 0.970124 0.064065
N44   N     N_1   0.389548 0.339657 0.930446 -0.091923
C101  C     C_1   0.829131 0.186472 0.962230 0.064163
N45   N     N_1   0.895314 0.159285 0.922080 -0.092531
C102  C     C_1   0.173799 0.811501 0.034601 0.061496
N46   N     N_1   0.107560 0.838903 0.075721 -0.096724
C103  C     C_1   0.142483 0.165163 0.088634 0.051506
N47   N     N_1   0.076873 0.137627 0.126325 -0.101068
C104  C     C_1   0.832411 0.813694 0.955703 0.062407
N48   N     N_1   0.899259 0.839956 0.913678 -0.097444

loop_
_geom_bond_atom_site_label_1
_geom_bond_atom_site_label_2
_ccdc_geom_bond_type
C68   C80   S    
C29   N13   A    
C102  N46   T    
N32   Ni8   S    
C75   H19   S    
C14   C94   S    
N4    Ni2   S    
N13   Ni4   S    
C27   N11   A    
C101  N45   T    
C17   C97   S    
C8    H8    S    
C7    C55   A    
C72   C76   S    
C25   N9    A    
C16   C72   S    
C76   C84   S    
C47   C62   A    
C79   C87   S    
N16   N29   A    
C65   C82   S    
N23   Ni8   S    
N26   Ni5   S    
C103  N47   T    
C33   C52   A    
C12   C68   S    
N3    N18   A    
C27   H11   S    
C34   C51   A    
N1    Ni1   S    
C22   C102  S    
C4    C52   A    
C10   C90   S    
N1    N20   A    
C5    C53   A    
C45   C64   A    
C6    C54   A    
N2    N19   A    
C58   C84   S    
C11   C76   S    
C13   C93   S    
N9    Ni2   S    
C10   C73   S    
C23   C49   S    
C39   C54   A    
C18   C98   S    
N5    N24   A    
C26   C58   A    
C18   C21   D    
C13   C81   S    
N6    N23   A    
C16   C84   S    
C4    N4    A    
N11   N26   A    
C3    H3    S    
C46   H46   S    
C14   C77   S    
C64   C86   S    
C2    H2    S    
C67   H27   S    
N9    N28   A    
C61   C87   S    
C43   C58   A    
C35   N19   A    
C33   N17   A    
C37   C56   A    
C60   C82   S    
N21   Ni7   S    
N27   Ni5   S    
C38   C55   A    
N14   Ni3   S    
N19   Ni6   S    
C3    N3    A    
C30   N14   A    
C11   C91   S    
C11   C87   S    
C70   C74   S    
C2    N2    A    
C32   H16   S    
C69   C73   S    
C42   H42   S    
N8    N21   A    
C17   C55   S    
C26   N10   A    
C18   C56   S    
C9    C85   S    
C78   C86   S    
C28   C60   A    
C19   C53   S    
C15   C95   S    
C77   C85   S    
C100  N44   T    
C76   H20   S    
C23   C103  S    
N22   Ni8   S    
C14   C70   S    
C8    C56   A    
C99   N43   T    
N13   N32   A    
C25   C57   A    
C74   C82   S    
C73   C81   S    
C26   H10   S    
C11   C67   S    
N15   N30   A    
C1    N1    A    
C10   C66   S    
C24   C50   S    
C66   C78   S    
C29   C61   A    
C19   C99   S    
C65   C77   S    
N30   Ni7   S    
C12   C88   S    
C104  N48   T    
C75   C83   S    
C21   C101  S    
N4    N17   A    
C67   C79   S    
C6    N6    A    
C20   C54   S    
N7    Ni3   S    
C48   N32   A    
C32   N16   A    
N16   Ni3   S    
C43   H43   S    
C4    H4    S    
C37   H37   S    
C6    H6    S    
C91   N35   T    
C62   C88   S    
C80   H24   S    
C34   N18   A    
C35   H35   S    
N15   Ni4   S    
C96   N40   T    
C28   N12   A    
N7    N22   A    
N31   Ni7   S    
C33   H33   S    
C92   N36   T    
C44   H44   S    
C20   C100  S    
C16   C96   S    
C45   H45   S    
N20   Ni5   S    
C74   H18   S    
C8    N8    A    
N18   Ni6   S    
C73   H17   S    
C15   C80   S    
C20   C23   D    
C44   C57   A    
C72   H32   S    
C35   C50   A    
C57   C83   S    
N12   Ni1   S    
C29   H13   S    
C78   H22   S    
N28   Ni6   S    
N24   Ni7   S    
C77   H21   S    
C71   C88   S    
C36   N20   A    
C32   C64   A    
C37   N21   A    
C30   H14   S    
C68   H28   S    
C31   N15   A    
C46   N30   A    
C39   N23   A    
C40   C53   A    
C30   C62   A    
C2    C50   A    
C9    C74   S    
N12   N25   A    
C42   N26   A    
C21   C51   S    
C72   C87   S    
C9    C89   S    
C22   C52   S    
N3    Ni1   S    
C25   H9    S    
C38   H38   S    
C13   C78   S    
C10   C86   S    
C1    H1    S    
C66   H26   S    
N10   N27   A    
C68   C83   S    
C65   H25   S    
C89   N33   T    
N11   Ni2   S    
C59   C81   S    
C41   C60   A    
C47   N31   A    
C34   H34   S    
C79   H23   S    
C42   C59   A    
C5    H5    S    
C7    H7    S    
N17   Ni5   S    
C90   N34   T    
C31   C63   A    
C15   C71   S    
C24   C104  S    
C17   C22   D    
C69   C86   S    
C71   H31   S    
C46   C63   A    
C16   C79   S    
C40   N24   A    
C19   C24   D    
C94   N38   T    
C80   C88   S    
C27   C59   A    
C66   C81   S    
C71   C75   S    
N25   Ni6   S    
C28   H12   S    
C93   N37   T    
C13   C69   S    
C70   H30   S    
C15   C83   S    
N14   N31   A    
C69   H29   S    
C44   N28   A    
C3    C51   A    
C38   N22   A    
N10   Ni1   S    
C45   N29   A    
C39   H39   S    
C95   N39   T    
N2    Ni2   S    
N29   Ni8   S    
C9    C65   S    
C40   H40   S    
C43   N27   A    
N8    Ni4   S    
C47   H47   S    
C98   N42   T    
C12   C92   S    
C67   C84   S    
C41   N25   A    
C97   N41   T    
C12   C75   S    
C5    N5    A    
C36   H36   S    
C48   C61   A    
C14   C82   S    
C7    N7    A    
C41   H41   S    
C70   C85   S    
C1    C49   A    
C63   C85   S    
C36   C49   A    
N5    Ni3   S    
C31   H15   S    
C48   H48   S    
N6    Ni4   S    
