data_mof_unit_46561.cif
_audit_creation_date              2012-12-10T19:03:05-0500
_audit_creation_method            fapswitch 2.2
_symmetry_space_group_name_H-M    P1
_symmetry_Int_Tables_number       1
_space_group_crystal_system       triclinic
_cell_length_a                    10.757972
_cell_length_b                    10.817319
_cell_length_c                    9.541208
_cell_angle_alpha                 90.077777
_cell_angle_beta                  89.908324
_cell_angle_gamma                 90.185065
_cell_volume                      1110.32518767

loop_
_atom_site_label
_atom_site_type_symbol
_atom_type_description
_atom_site_fract_x
_atom_site_fract_y
_atom_site_fract_z
_atom_type_partial_charge
C1    C     C_R   0.497384 0.262334 0.499894 0.808213
C2    C     C_3   0.878256 0.497772 0.500248 0.028652
C3    C     C_3   0.929850 0.615354 0.427585 -0.376860
C4    C     C_3   0.928185 0.380983 0.423109 0.477595
C5    C     C_R   0.485618 0.063872 0.625654 0.129369
C6    C     C_R   0.484635 0.129258 0.499725 -0.095013
C7    C     C_R   0.466283 0.064210 0.373717 -0.203762
C8    C     C_R   0.466715 0.935310 0.373783 -0.217669
C9    C     C_R   0.485478 0.870810 0.499858 -0.101237
C10   C     C_R   0.486240 0.936648 0.625707 0.133337
C11   C     C_3   0.575409 0.931212 0.745367 -0.478347
C12   C     C_R   0.259901 0.497651 0.500481 0.772787
C13   C     C_3   0.574231 0.071521 0.745714 -0.445162
C14   C     C_R   0.556338 0.593665 0.073917 0.249864
C15   C     C_R   0.435343 0.413682 0.074411 -0.062914
C16   C     C_R   0.435813 0.413360 0.925557 -0.093377
C17   C     C_R   0.556796 0.593369 0.926357 0.259877
C18   C     C_3   0.691609 0.625650 0.922047 -0.510256
C19   C     C_3   0.690315 0.628058 0.080720 -0.493081
C20   C     C_R   0.497863 0.737710 0.499995 0.792986
C21   C     C_R   0.740215 0.499199 0.499955 0.795483
C22   C     C_3   0.069655 0.489371 0.655993 -0.121140
C23   C     C_3   0.927011 0.496293 0.653412 -0.484953
C24   C     C_3   0.073269 0.616716 0.434084 -0.417907
C25   C     C_3   0.071645 0.385365 0.414928 -0.375344
C26   C     C_3   0.121957 0.495787 0.502316 0.035224
Cu1   Cu    Cu3+1 0.499990 0.499980 0.640670 0.936626
Cu2   Cu    Cu3+1 0.500010 0.500020 0.359330 0.961913
H1    H     H_    0.103886 0.572508 0.713531 0.116754
H2    H     H_    0.111133 0.627264 0.326087 0.188501
H3    H     H_    0.899621 0.618038 0.316229 0.205237
H4    H     H_    0.457692 0.112230 0.274674 0.162417
H5    H     H_    0.458352 0.886925 0.274759 0.163329
H6    H     H_    0.532618 0.890151 0.840756 0.197538
H7    H     H_    0.666820 0.891768 0.714607 0.192469
H8    H     H_    0.530195 0.111449 0.840981 0.199010
H9    H     H_    0.665037 0.113468 0.715961 0.205316
H10   H     H_    0.384814 0.342452 0.130184 0.132947
H11   H     H_    0.386550 0.341306 0.869810 0.140269
H12   H     H_    0.748942 0.549032 0.879994 0.222374
H13   H     H_    0.709395 0.717616 0.874536 0.188673
H14   H     H_    0.748907 0.554503 0.127386 0.261062
H15   H     H_    0.704540 0.722024 0.125316 0.187106
H16   H     H_    0.884492 0.417657 0.711898 0.200708
H17   H     H_    0.897834 0.582743 0.707432 0.174280
H18   H     H_    0.105168 0.698293 0.495693 0.166447
H19   H     H_    0.892679 0.699697 0.479618 0.153008
H20   H     H_    0.101131 0.395952 0.303660 0.198070
H21   H     H_    0.111545 0.296457 0.451258 0.164312
H22   H     H_    0.898836 0.296728 0.481399 0.098466
N1    N     N_R   0.500800 0.500930 0.147930 -0.178968
N2    N     N_R   0.500800 0.500890 0.852020 -0.184172
O1    O     O_R   0.500000 0.319640 0.618810 -0.582865
O2    O     O_R   0.500010 0.319680 0.381230 -0.578724
O3    O     O_R   0.317690 0.499960 0.618790 -0.599354
O4    O     O_R   0.317700 0.500000 0.381210 -0.590797
O5    O     O_R   0.499990 0.680320 0.618770 -0.578391
O6    O     O_R   0.500000 0.680360 0.381190 -0.590807
O7    O     O_R   0.682300 0.500000 0.618790 -0.599842
O8    O     O_R   0.682310 0.500040 0.381210 -0.530962
F1    F     F_    0.880089 0.372507 0.288623 -0.675996
C27   C     C_2   0.112466 0.378217 0.739684 0.371236
H23   H     H_    0.170291 0.392379 0.831282 0.070370
O9    O     O_2   0.081348 0.273216 0.707978 -0.573928

loop_
_geom_bond_atom_site_label_1
_geom_bond_atom_site_label_2
_ccdc_geom_bond_type
C2    C4    S    
C1    O2    A    
Cu1   O1    S    
C15   H10   S    
C27   H23   S    
C23   H17   S    
C22   H1    S    
C15   N1    A    
C22   C27   S    
C9    C10   A    
C9    C20   S    
C13   H9    S    
C14   N1    A    
C14   C17   A    
C19   H14   S    
C27   O9    D    
C24   H18   S    
C1    O1    A    
C2    C21   S    
C11   H7    S    
C2    C3    S    
Cu2   O4    S    
C7    C8    A    
Cu1   O7    S    
C3    H3    S    
C11   C13   S    
C25   H20   S    
C3    C24   S    
C12   O4    A    
C21   O8    A    
C14   C19   S    
C17   N2    A    
C3    H19   S    
C19   H15   S    
C21   O7    A    
C6    C7    A    
Cu2   O6    S    
C8    H5    S    
Cu2   O8    S    
Cu1   O5    S    
C5    C6    A    
C24   C26   S    
Cu2   N1    S    
C24   H2    S    
C12   O3    A    
C10   C11   S    
Cu1   O3    S    
C16   H11   S    
C20   O6    A    
C15   C16   A    
C4    C25   S    
C5    C10   A    
Cu1   N2    S    
C13   H8    S    
C17   C18   S    
C18   C19   S    
C22   C26   S    
C18   H13   S    
C4    H22   S    
C2    C23   S    
C20   O5    A    
Cu2   O2    S    
C22   C23   S    
C18   H12   S    
C7    H4    S    
C1    C6    S    
C25   C26   S    
C5    C13   S    
C4    F1    S    
C11   H6    S    
C23   H16   S    
C16   N2    A    
C12   C26   S    
C8    C9    A    
Cu1   Cu2   S    
C25   H21   S    
