data_mof_unit_19271.cif
_audit_creation_date              2012-12-10T18:33:34-0500
_audit_creation_method            fapswitch 2.2
_symmetry_space_group_name_H-M    P1
_symmetry_Int_Tables_number       1
_space_group_crystal_system       triclinic
_cell_length_a                    8.711852
_cell_length_b                    15.105188
_cell_length_c                    13.906912
_cell_angle_alpha                 89.610473
_cell_angle_beta                  97.736977
_cell_angle_gamma                 90.82303
_cell_volume                      1813.1995049

loop_
_atom_site_label
_atom_site_type_symbol
_atom_type_description
_atom_site_fract_x
_atom_site_fract_y
_atom_site_fract_z
_atom_type_partial_charge
C1    C     C_R   0.499938 0.329993 0.500170 0.801442
C2    C     C_R   0.499801 0.670143 0.499678 0.821070
C3    C     C_R   0.611872 0.543398 0.115669 -0.440813
C4    C     C_R   0.453083 0.429669 0.891684 -0.391870
C5    C     C_R   0.614495 0.544344 0.218483 0.673542
C6    C     C_R   0.448008 0.428579 0.789973 0.652211
C7    C     C_R   0.378728 0.461450 0.201054 -0.042460
C8    C     C_R   0.542184 0.575775 0.791890 -0.041833
C9    C     C_R   0.364591 0.467039 0.098834 0.105062
C10   C     C_R   0.529778 0.583330 0.892033 0.102442
C11   C     C_R   0.486266 0.506521 0.054107 0.099998
C12   C     C_R   0.488474 0.507620 0.944844 0.076430
C13   C     C_R   0.203855 0.498686 0.475276 0.860942
C14   C     C_R   0.796168 0.499834 0.524792 0.890477
C15   C     C_2   0.038107 0.495408 0.461856 -0.382205
C16   C     C_2   0.961991 0.500607 0.538531 -0.377093
C17   C     C_R   0.407412 0.094552 0.561978 0.437959
C18   C     C_R   0.439910 0.904660 0.410899 0.439582
C19   C     C_R   0.416461 0.186900 0.564731 -0.273607
C20   C     C_R   0.448346 0.812253 0.411824 -0.281288
C21   C     C_R   0.497505 0.233557 0.499913 -0.082014
C22   C     C_R   0.496791 0.766801 0.498606 -0.085024
C23   C     C_R   0.573154 0.187702 0.433267 -0.217889
C24   C     C_R   0.540891 0.814173 0.584366 -0.213084
C25   C     C_R   0.570555 0.095700 0.432940 -0.171566
C26   C     C_R   0.538619 0.906068 0.583182 -0.170426
C27   C     C_R   0.488520 0.048695 0.497304 0.032571
C28   C     C_R   0.488888 0.951707 0.496820 0.032074
Cu1   Cu    Cu3+1 0.500000 0.499990 0.596430 0.959119
Cu2   Cu    Cu3+1 0.500000 0.500010 0.403570 0.967500
H1    H     H_    0.978454 0.488260 0.388494 0.176381
H2    H     H_    0.021629 0.506561 0.612105 0.164820
H3    H     H_    0.356599 0.221923 0.615597 0.190272
H4    H     H_    0.414911 0.776223 0.345028 0.165106
H5    H     H_    0.636699 0.223031 0.382850 0.157349
H6    H     H_    0.579633 0.780304 0.651989 0.152396
H7    H     H_    0.633477 0.061040 0.382947 0.170385
H8    H     H_    0.576797 0.941786 0.649606 0.172626
H9    H     H_    0.704148 0.573106 0.081603 0.174947
H10   H     H_    0.424034 0.369639 0.928491 0.183565
H11   H     H_    0.287763 0.429248 0.234784 0.156372
H12   H     H_    0.580295 0.632917 0.754007 0.158012
N1    N     N_R   0.500000 0.500020 0.258690 -0.225764
N2    N     N_R   0.500000 0.499980 0.741310 -0.231544
O1    O     O_R   0.500010 0.371450 0.581430 -0.533194
O2    O     O_R   0.499990 0.628550 0.418570 -0.548162
O3    O     O_R   0.500010 0.371460 0.418560 -0.596719
O4    O     O_R   0.499990 0.628540 0.581440 -0.607140
O5    O     O_R   0.274840 0.499990 0.562640 -0.580036
O6    O     O_R   0.725160 0.500010 0.437360 -0.535518
O7    O     O_R   0.274840 0.500000 0.399770 -0.607687
O8    O     O_R   0.725160 0.500000 0.600230 -0.593088
O9    O     O_3   0.323745 0.048802 0.624527 -0.586221
C29   C     C_3   0.164370 0.055204 0.589561 0.056317
H13   H     H_    0.139281 0.032357 0.512931 0.132737
H14   H     H_    0.124405 0.124529 0.594354 0.137991
C30   C     C_3   0.072309 0.996688 0.651134 -0.771184
H15   H     H_    0.092417 0.018668 0.727910 0.250060
H16   H     H_    0.946709 0.001066 0.624082 0.198119
H17   H     H_    0.108520 0.926746 0.647094 0.249680
O10   O     O_3   0.390251 0.949754 0.325663 -0.587843
C31   C     C_3   0.229238 0.935604 0.300615 0.063356
H18   H     H_    0.165137 0.947075 0.363540 0.127431
H19   H     H_    0.204774 0.867084 0.273295 0.143076
C32   C     C_3   0.168770 0.000093 0.220436 -0.774996
H20   H     H_    0.228152 0.989616 0.155671 0.252958
H21   H     H_    0.042243 0.989462 0.199839 0.198086
H22   H     H_    0.190194 0.069249 0.246015 0.246835
O11   O     O_3   0.720362 0.594085 0.281486 -0.554301
C33   C     C_3   0.855901 0.623203 0.244263 0.035100
H23   H     H_    0.899745 0.574901 0.194845 0.114608
H24   H     H_    0.949642 0.629107 0.306447 0.174869
C34   C     C_3   0.834389 0.715632 0.199723 -0.836634
H25   H     H_    0.810928 0.763409 0.256173 0.256337
H26   H     H_    0.941608 0.736926 0.170499 0.208434
H27   H     H_    0.736127 0.716842 0.140224 0.247029
O12   O     O_3   0.390084 0.354158 0.740127 -0.571612
C35   C     C_3   0.225839 0.353450 0.729895 0.067066
H28   H     H_    0.181475 0.346353 0.651603 0.165391
H29   H     H_    0.173438 0.414923 0.754893 0.119679
C36   C     C_3   0.167975 0.274101 0.783632 -0.849475
H30   H     H_    0.202415 0.281283 0.862958 0.243705
H31   H     H_    0.039626 0.269712 0.768818 0.218044
H32   H     H_    0.216956 0.211998 0.759193 0.266115
C37   C     C_3   0.215001 0.434499 0.042079 -0.907691
H33   H     H_    0.196641 0.461626 0.967217 0.247034
H34   H     H_    0.213802 0.361057 0.039667 0.233455
H35   H     H_    0.115363 0.456391 0.077712 0.228255
C38   C     C_3   0.553817 0.673867 0.936802 -0.904088
H36   H     H_    0.502252 0.678956 0.005169 0.250400
H37   H     H_    0.679570 0.689913 0.950549 0.232191
H38   H     H_    0.496058 0.724401 0.886494 0.235057

loop_
_geom_bond_atom_site_label_1
_geom_bond_atom_site_label_2
_ccdc_geom_bond_type
Cu2   O7    S    
C1    C21   S    
C34   H25   S    
C36   H30   S    
C9    C37   S    
Cu1   O5    S    
O9    C29   S    
C2    O2    A    
C24   H6    S    
C22   C24   A    
C19   C21   A    
C8    H12   S    
C37   H33   S    
C35   H29   S    
C30   H16   S    
C15   C16   D    
C6    O12   S    
C5    O11   S    
C25   H7    S    
C13   O7    A    
C14   O8    A    
C31   H18   S    
C4    H10   S    
C10   C38   S    
C32   H21   S    
C2    C22   S    
C31   H19   S    
C33   H23   S    
C7    N1    A    
C38   H37   S    
C20   H4    S    
C23   C25   A    
Cu2   O6    S    
C3    H9    S    
C6    N2    A    
C34   H26   S    
O10   C31   S    
C36   H31   S    
C37   H34   S    
C29   H14   S    
Cu1   O4    S    
C17   C27   A    
Cu2   O3    S    
C18   C28   A    
C4    C6    A    
C19   H3    S    
C35   H28   S    
C26   H8    S    
C30   H17   S    
C2    O4    A    
O12   C35   S    
Cu1   O1    S    
Cu1   Cu2   S    
C32   H22   S    
C33   C34   S    
C38   H38   S    
C9    C11   A    
C10   C12   A    
C13   O5    A    
C20   C22   A    
C23   H5    S    
C13   C15   S    
Cu1   N2    S    
C25   C27   A    
C34   H27   S    
C14   C16   S    
Cu2   N1    S    
C4    C12   A    
C17   O9    S    
C36   H32   S    
C37   H35   S    
C7    C9    A    
C29   H13   S    
C31   C32   S    
Cu2   O2    S    
C1    O3    A    
C8    N2    A    
C24   C26   A    
C3    C5    A    
C11   C12   S    
C18   O10   S    
C15   H1    S    
C16   H2    S    
C26   C28   A    
C21   C23   A    
C35   C36   S    
C1    O1    A    
C30   H15   S    
C14   O6    A    
C17   C19   A    
C18   C20   A    
C7    H11   S    
C5    N1    A    
O11   C33   S    
C3    C11   A    
C8    C10   A    
C32   H20   S    
C27   C28   S    
C33   H24   S    
C38   H36   S    
C29   C30   S    
Cu1   O8    S    
