data_mof_unit_11006.cif
_audit_creation_date              2012-12-11T15:13:50-0500
_audit_creation_method            fapswitch 2.2
_symmetry_space_group_name_H-M    P1
_symmetry_Int_Tables_number       1
_space_group_crystal_system       triclinic
_cell_length_a                    6.948167
_cell_length_b                    13.496263
_cell_length_c                    20.104661
_cell_angle_alpha                 104.071088
_cell_angle_beta                  90.369138
_cell_angle_gamma                 90.335319
_cell_volume                      1828.64008279

loop_
_atom_site_label
_atom_site_type_symbol
_atom_type_description
_atom_site_fract_x
_atom_site_fract_y
_atom_site_fract_z
_atom_type_partial_charge
O1    O     O_R   0.506780 0.600060 0.449950 -0.538265
O2    O     O_R   0.179840 0.597110 0.589410 -0.541932
O3    O     O_R   0.004570 0.399940 0.550050 -0.541289
C1    C     C_R   0.348893 0.619154 0.616856 0.707615
O4    O     O_R   0.177380 0.612160 0.452890 -0.538728
O5    O     O_R   0.002100 0.415100 0.412560 -0.544885
C2    C     C_R   0.346030 0.638979 0.436362 0.785764
O6    O     O_R   0.509250 0.584900 0.587440 -0.539863
O7    O     O_3   0.337570 0.435330 0.486930 -0.378339
V1    V     V_3+5 0.064650 0.512000 0.502430 1.442644
O8    O     O_R   0.672090 0.402890 0.410590 -0.546800
C3    C     C_R   0.840084 0.381834 0.382931 0.682187
O9    O     O_R   0.674540 0.387840 0.547110 -0.542837
C4    C     C_R   0.843700 0.361007 0.563712 0.689756
V2    V     V_3+5 0.564040 0.488000 0.497570 1.432567
O10   O     O_3   0.840990 0.564670 0.513070 -0.364477
C5    C     C_R   0.944064 0.113253 0.609815 -0.131888
H1    H     H_    0.941607 0.163188 0.516327 0.106216
H2    H     H_    0.972734 0.988685 0.692677 0.125301
H3    H     H_    0.983548 0.035993 0.583882 0.145896
C6    C     C_R   0.856784 0.283154 0.602935 -0.038731
C7    C     C_R   0.833032 0.318008 0.933446 -0.212285
C8    C     C_R   0.844363 0.397343 0.900725 0.262678
C9    C     C_R   0.873547 0.376786 0.829399 0.152316
C10   C     C_R   0.874978 0.272948 0.789156 -0.000378
C11   C     C_R   0.882469 0.193648 0.825061 0.038260
C12   C     C_R   0.877513 0.243837 0.715473 0.089235
C13   C     C_R   0.922446 0.141393 0.681341 0.140631
C14   C     C_R   0.942243 0.067265 0.718465 -0.199039
C15   C     C_R   0.915877 0.092071 0.788770 -0.177793
C16   C     C_R   0.829004 0.310853 0.673884 -0.235366
C17   C     C_R   0.917565 0.184818 0.571142 -0.164017
C18   C     C_R   0.860061 0.217386 0.897052 -0.135840
H4    H     H_    0.767465 0.384536 0.694889 0.112347
H5    H     H_    0.813889 0.335595 0.988568 0.128953
H6    H     H_    0.925893 0.030680 0.814666 0.113899
C19   C     C_3   0.728304 0.173886 0.244912 -0.164885
C20   C     C_3   0.897608 0.197487 0.297382 -0.149971
H7    H     H_    0.934388 0.154158 0.336070 0.104985
H8    H     H_    0.623412 0.110271 0.240213 0.125391
C21   C     C_3   0.848427 0.312127 0.312372 -0.036383
C22   C     C_3   0.678638 0.289350 0.260943 -0.119008
C23   C     C_3   0.815473 0.303309 0.203072 -0.188369
C24   C     C_3   0.985365 0.327555 0.255421 -0.175587
C25   C     C_3   0.029513 0.212848 0.239704 0.264556
C26   C     C_3   0.864624 0.188550 0.187609 -0.014002
H9    H     H_    0.533481 0.323470 0.270451 0.105807
H10   H     H_    0.780719 0.346332 0.164029 0.112642
H11   H     H_    0.093629 0.389741 0.259965 0.101376
C27   C     C_3   0.538269 0.722956 0.731647 -0.122113
C28   C     C_3   0.463457 0.834190 0.750293 -0.125952
H12   H     H_    0.551274 0.903533 0.751224 0.115613
H13   H     H_    0.687917 0.699813 0.716507 0.110993
C29   C     C_3   0.356831 0.811975 0.812124 -0.010965
C30   C     C_3   0.431816 0.701620 0.794279 -0.139843
C31   C     C_3   0.250236 0.667590 0.749229 -0.141651
C32   C     C_3   0.175378 0.778743 0.767836 -0.131537
C33   C     C_3   0.281858 0.800015 0.705185 -0.117853
C34   C     C_3   0.356733 0.689618 0.687397 -0.013549
H14   H     H_    0.493053 0.661276 0.831462 0.101722
H15   H     H_    0.162178 0.598473 0.747999 0.118215
H16   H     H_    0.025744 0.801927 0.782976 0.110512
H17   H     H_    0.220893 0.840104 0.667838 0.135679
C35   C     C_R   0.361690 0.893489 0.392061 -0.239931
H18   H     H_    0.369087 0.019155 0.309447 0.128234
H19   H     H_    0.364578 0.973631 0.418719 0.140291
C36   C     C_R   0.354244 0.716657 0.397032 -0.152046
C37   C     C_R   0.353486 0.680041 0.066772 -0.153548
C38   C     C_R   0.348174 0.603283 0.101893 -0.102442
C39   C     C_R   0.348943 0.627568 0.173361 -0.163482
C40   C     C_R   0.354999 0.730611 0.211891 0.104214
C41   C     C_R   0.359330 0.808952 0.175422 0.055150
C42   C     C_R   0.356876 0.758587 0.285215 0.087148
C43   C     C_R   0.361395 0.863821 0.320104 0.048406
C44   C     C_R   0.365331 0.938887 0.283122 -0.166311
C45   C     C_R   0.364758 0.912068 0.212004 -0.185970
C46   C     C_R   0.354191 0.685940 0.325400 -0.318512
C47   C     C_R   0.357479 0.820325 0.430362 0.604891
C48   C     C_R   0.358782 0.782523 0.102781 -0.082017
H20   H     H_    0.351028 0.604866 0.302925 0.116639
H21   H     H_    0.353568 0.659494 0.011191 0.100825
H22   H     H_    0.344554 0.563711 0.196642 0.102749
H23   H     H_    0.343753 0.524070 0.073481 0.124365
H24   H     H_    0.368508 0.973205 0.185804 0.144520
O11   O     O_R   0.203580 0.914920 0.912610 -0.542519
O12   O     O_R   0.535710 0.887810 0.047120 -0.539934
O13   O     O_R   0.710730 0.084950 0.087430 -0.543535
C49   C     C_R   0.367062 0.860619 0.063423 0.693225
O14   O     O_R   0.533010 0.902850 0.910600 -0.544293
O15   O     O_R   0.708010 0.100090 0.949930 -0.539620
C50   C     C_R   0.364124 0.881492 0.882944 0.678921
O16   O     O_R   0.206300 0.899780 0.050100 -0.534402
O17   O     O_3   0.375170 0.064580 0.013100 -0.369934
V3    V     V_3+5 0.648200 0.988020 0.997570 1.422222
O18   O     O_R   0.038030 0.112330 0.952840 -0.541866
C51   C     C_R   0.869037 0.138646 0.935968 0.706877
O19   O     O_R   0.040730 0.097300 0.089360 -0.533749
C52   C     C_R   0.872806 0.118407 0.117056 0.697509
V4    V     V_3+5 0.148780 0.012220 0.002360 1.432986
O20   O     O_3   0.871930 0.935430 0.986900 -0.370669
N1    N     N_3   0.221104 0.169550 0.228358 -0.689191
H25   H     H_    0.296451 0.192455 0.274733 0.211003
H26   H     H_    0.289568 0.203196 0.193142 0.228135
F1    F     F_    0.356381 0.850512 0.499897 -0.710659
N2    N     N_3   0.933807 0.461710 0.803097 -0.712220
H27   H     H_    0.034646 0.439655 0.764073 0.234217
H28   H     H_    0.814104 0.497860 0.788239 0.219167
N3    N     N_3   0.834133 0.500144 0.941675 -0.664600
H29   H     H_    0.963411 0.537672 0.936747 0.252047
H30   H     H_    0.722704 0.537163 0.922422 0.228367

loop_
_geom_bond_atom_site_label_1
_geom_bond_atom_site_label_2
_ccdc_geom_bond_type
C24   H11   S    
C30   C31   S    
C44   C45   A    
O17   V3    S    
C21   C22   S    
O18   C51   A    
C36   C46   A    
C1    O6    A    
C45   H24   S    
O19   C52   A    
O11   C50   A    
C32   H16   S    
C25   C26   S    
N3    H29   S    
C7    H5    S    
N2    H28   S    
C19   C20   S    
C38   H23   S    
C37   H21   S    
C4    C6    S    
C13   C14   A    
C41   C48   A    
O5    C3    A    
C20   H7    S    
O12   C49   A    
V2    O10   S    
O13   V3    S    
C19   C22   S    
C5    H3    S    
C31   C32   S    
C42   C43   A    
O14   V3    S    
C20   C25   S    
O12   V3    S    
O8    V2    S    
C49   O16   A    
C37   C38   A    
C8    C9    A    
C39   C40   A    
O1    V2    S    
O14   C50   A    
C23   H10   S    
O17   V4    S    
C41   C45   A    
O13   C52   A    
C37   C48   A    
C26   C52   S    
N1    H26   S    
C30   H14   S    
C36   C47   A    
C48   C49   S    
O19   V4    S    
O15   V3    S    
C7    C8    A    
C6    C17   A    
C27   H13   S    
C43   C44   A    
C12   C16   A    
C28   H12   S    
N1    H25   S    
C9    C10   A    
C20   C21   S    
C40   C42   A    
C10   C11   A    
C47   F1    S    
C35   H19   S    
O2    C1    A    
C23   C24   S    
C14   C15   A    
O11   V4    S    
C6    C16   A    
C11   C18   A    
V4    O20   S    
V3    O20   S    
C27   C28   S    
C16   H4    S    
C28   C33   S    
O3    C4    A    
C25   N1    S    
C11   C15   A    
O6    V2    S    
O9    V2    S    
C10   C12   A    
C21   C24   S    
H1    C17   S    
C22   C23   S    
C27   C34   S    
O2    V1    S    
C18   C51   S    
C24   C25   S    
C3    C21   S    
O4    C2    A    
O7    V1    S    
C46   H20   S    
C33   H17   S    
C7    C18   A    
C29   C30   S    
C42   C46   A    
O1    C2    A    
C5    C13   A    
C35   C47   A    
O5    V1    S    
O8    C3    A    
O15   C51   A    
C19   H8    S    
N2    H27   S    
C27   C30   S    
H18   C44   S    
C31   C34   S    
C15   H6    S    
C28   C29   S    
C33   C34   S    
O4    V1    S    
O3    V1    S    
V1    O10   S    
C32   C33   S    
C8    N3    S    
C1    C34   S    
N3    H30   S    
O18   V4    S    
C22   H9    S    
O7    V2    S    
C38   C39   A    
C39   H22   S    
C23   C26   S    
C2    C36   S    
C29   C50   S    
C40   C41   A    
C12   C13   A    
C5    C17   A    
C35   C43   A    
C31   H15   S    
C9    N2    S    
C19   C26   S    
O9    C4    A    
O16   V4    S    
C29   C32   S    
H2    C14   S    
