data_mof_unit_37057.cif
_audit_creation_date              2012-12-10T18:58:47-0500
_audit_creation_method            fapswitch 2.2
_symmetry_space_group_name_H-M    P1
_symmetry_Int_Tables_number       1
_space_group_crystal_system       triclinic
_cell_length_a                    12.945906
_cell_length_b                    10.863672
_cell_length_c                    9.576776
_cell_angle_alpha                 90.029118
_cell_angle_beta                  95.579185
_cell_angle_gamma                 90.951907
_cell_volume                      1340.31000631

loop_
_atom_site_label
_atom_site_type_symbol
_atom_type_description
_atom_site_fract_x
_atom_site_fract_y
_atom_site_fract_z
_atom_type_partial_charge
C1    C     C_R   0.502629 0.262403 0.499605 0.808212
C2    C     C_R   0.027224 0.526204 0.558889 0.099790
C3    C     C_R   0.974033 0.452611 0.452006 0.051962
C4    C     C_R   0.866729 0.437439 0.448288 -0.241970
C5    C     C_R   0.865035 0.573864 0.648922 -0.180287
C6    C     C_R   0.972499 0.584606 0.658258 -0.155489
C7    C     C_R   0.501342 0.063418 0.622117 0.078839
C8    C     C_R   0.511773 0.128997 0.498388 -0.109048
C9    C     C_R   0.534999 0.062098 0.377395 0.154640
C10   C     C_R   0.529065 0.933580 0.380067 -0.219942
C11   C     C_R   0.509209 0.870317 0.502049 -0.129789
C12   C     C_R   0.300833 0.497432 0.474419 0.832997
C13   C     C_R   0.503778 0.936847 0.625321 0.067089
C14   C     C_3   0.427105 0.927785 0.731962 -0.440209
C15   C     C_3   0.422511 0.067993 0.727124 -0.040622
C16   C     C_R   0.548508 0.593533 0.078372 0.246206
C17   C     C_R   0.443694 0.415390 0.066994 -0.085249
C18   C     C_R   0.444604 0.414547 0.918487 -0.064449
C19   C     C_R   0.544476 0.595308 0.930881 0.176568
C20   C     C_3   0.651814 0.641639 0.926230 -0.480894
C21   C     C_3   0.662413 0.634084 0.085919 0.230689
C22   C     C_R   0.500572 0.737390 0.500347 0.808312
C23   C     C_R   0.699265 0.499318 0.526088 0.794574
C24   C     C_R   0.811972 0.502074 0.542583 -0.068489
C25   C     C_R   0.188504 0.487230 0.461561 -0.135694
C26   C     C_R   0.028989 0.398371 0.349317 0.589504
C27   C     C_R   0.135909 0.417016 0.353412 -0.270642
C28   C     C_R   0.134251 0.541476 0.563926 -0.266781
Cu1   Cu    Cu3+1 0.499990 0.499980 0.640670 0.940255
Cu2   Cu    Cu3+1 0.500010 0.500020 0.359330 0.938677
H1    H     H_    0.825013 0.379064 0.369239 0.191256
H2    H     H_    0.463178 0.892470 0.833928 0.169330
H3    H     H_    0.453602 0.112633 0.827384 0.162639
H4    H     H_    0.398686 0.346267 0.116548 0.137535
H5    H     H_    0.401243 0.343880 0.857466 0.139969
H6    H     H_    0.700152 0.575522 0.874720 0.211212
H7    H     H_    0.653399 0.736345 0.882269 0.179563
H8    H     H_    0.823328 0.624990 0.721740 0.137710
H9    H     H_    0.012412 0.641445 0.740247 0.136608
H10   H     H_    0.178035 0.373769 0.274726 0.173990
H11   H     H_    0.175435 0.596423 0.646842 0.160082
H12   H     H_    0.535495 0.883130 0.284563 0.168599
H13   H     H_    0.354185 0.878747 0.691177 0.201941
N1    N     N_R   0.500660 0.500930 0.148010 -0.196263
N2    N     N_R   0.500660 0.500890 0.852110 -0.180383
O1    O     O_R   0.500000 0.319640 0.618810 -0.584773
O2    O     O_R   0.500010 0.319680 0.381230 -0.584711
O3    O     O_R   0.348990 0.499960 0.599490 -0.585157
O4    O     O_R   0.349000 0.500000 0.361910 -0.578604
O5    O     O_R   0.499990 0.680320 0.618770 -0.577678
O6    O     O_R   0.500000 0.680360 0.381190 -0.585684
O7    O     O_R   0.651000 0.500000 0.638090 -0.583497
O8    O     O_R   0.651010 0.500040 0.400510 -0.585268
C29   C     C_3   0.316065 0.115161 0.667956 -0.829899
H14   H     H_    0.257835 0.093049 0.742359 0.238582
H15   H     H_    0.319213 0.216483 0.654595 0.237494
H16   H     H_    0.290516 0.072045 0.564773 0.243088
C30   C     C_3   0.742652 0.537439 0.138179 -0.692509
H17   H     H_    0.777463 0.562913 0.243980 0.242466
H18   H     H_    0.707709 0.443347 0.138292 0.226121
H19   H     H_    0.808611 0.536658 0.072124 0.219402
C31   C     C_3   0.684782 0.760576 0.154235 -0.824188
H20   H     H_    0.629456 0.829669 0.107490 0.199042
H21   H     H_    0.679254 0.754400 0.268942 0.242953
H22   H     H_    0.764548 0.792321 0.136972 0.242053
F1    F     F_    0.979490 0.328572 0.244869 -0.681463
C32   C     C_3   0.562738 0.121801 0.243253 -0.804465
H23   H     H_    0.627136 0.189844 0.266204 0.244914
H24   H     H_    0.589648 0.053549 0.168944 0.208304
H25   H     H_    0.493636 0.166361 0.189188 0.230932

loop_
_geom_bond_atom_site_label_1
_geom_bond_atom_site_label_2
_ccdc_geom_bond_type
C7    C13   A    
C2    C28   A    
Cu2   O6    S    
C9    C32   S    
C16   C21   S    
C10   H12   S    
C1    C8    S    
C9    C10   A    
C16   N1    A    
C11   C22   S    
C19   C20   S    
C14   C15   S    
C12   O3    A    
Cu1   O1    S    
C22   O5    A    
C32   H25   S    
C30   H19   S    
C7    C15   S    
C12   O4    A    
C23   O7    A    
C17   N1    A    
C21   C30   S    
C2    C6    A    
C13   C14   S    
C29   H16   S    
C25   C28   A    
C27   H10   S    
C20   H7    S    
C11   C13   A    
Cu2   N1    S    
C21   C31   S    
C31   H20   S    
C5    C24   A    
C16   C19   A    
C18   H5    S    
C19   N2    A    
Cu2   O4    S    
C23   O8    A    
C2    C3    A    
Cu1   O5    S    
C26   C27   A    
C5    C6    A    
C4    C24   A    
Cu2   O8    S    
C29   H15   S    
C1    O1    A    
C22   O6    A    
C4    H1    S    
C25   C27   A    
C17   H4    S    
C23   C24   S    
C12   C25   S    
Cu1   Cu2   S    
C3    C4    A    
C26   F1    S    
C15   C29   S    
Cu2   O2    S    
C7    C8    A    
C20   C21   S    
C17   C18   A    
C18   N2    A    
C10   C11   A    
C14   H2    S    
C6    H9    S    
C29   H14   S    
C8    C9    A    
C31   H21   S    
Cu1   O3    S    
C31   H22   S    
C30   H17   S    
C5    H8    S    
C30   H18   S    
C15   H3    S    
C3    C26   A    
C1    O2    A    
C28   H11   S    
C32   H23   S    
Cu1   N2    S    
C14   H13   S    
C32   H24   S    
Cu1   O7    S    
C20   H6    S    
