data_mof_unit_11958.cif
_audit_creation_date              2012-12-10T18:39:01-0500
_audit_creation_method            fapswitch 2.2
_symmetry_space_group_name_H-M    P1
_symmetry_Int_Tables_number       1
_space_group_crystal_system       triclinic
_cell_length_a                    10.926531
_cell_length_b                    11.565687
_cell_length_c                    10.743503
_cell_angle_alpha                 90.579386
_cell_angle_beta                  90.444553
_cell_angle_gamma                 89.449922
_cell_volume                      1357.51512215

loop_
_atom_site_label
_atom_site_type_symbol
_atom_type_description
_atom_site_fract_x
_atom_site_fract_y
_atom_site_fract_z
_atom_type_partial_charge
C1    C     C_R   0.499874 0.281094 0.499456 0.990037
C2    C     C_R   0.506270 0.718614 0.500414 0.864730
C3    C     C_1   0.500660 0.160996 0.498392 -0.135762
C4    C     C_3   0.073264 0.454601 0.623584 0.020961
C5    C     C_3   0.068193 0.431927 0.391729 0.005032
C6    C     C_3   0.931822 0.460968 0.627570 0.014863
C7    C     C_3   0.927056 0.426768 0.396723 0.004361
C8    C     C_1   0.501835 0.059120 0.498359 0.014294
C9    C     C_3   0.072589 0.646994 0.493133 -0.078012
C10   C     C_3   0.921293 0.644942 0.473897 -0.078485
C11   C     C_R   0.120781 0.706130 0.621706 0.064625
C12   C     C_3   0.120465 0.511153 0.499532 -0.164525
C13   C     C_R   0.240128 0.752078 0.626044 -0.092501
C14   C     C_R   0.289686 0.808474 0.730300 -0.099812
C15   C     C_R   0.222603 0.818203 0.838578 -0.118556
C16   C     C_R   0.107604 0.769354 0.842753 -0.120382
C17   C     C_R   0.059036 0.712864 0.737957 -0.134108
C18   C     C_R   0.131867 0.725064 0.386414 0.071811
C19   C     C_R   0.198256 0.683825 0.280770 -0.123392
C20   C     C_R   0.253559 0.757852 0.196378 -0.137291
C21   C     C_R   0.248127 0.876549 0.214315 -0.116002
C22   C     C_R   0.188155 0.921298 0.317403 -0.090997
C23   C     C_3   0.878087 0.511149 0.501589 -0.157840
C24   C     C_R   0.132459 0.847787 0.401590 -0.170887
C25   C     C_R   0.861336 0.744118 0.559554 0.069008
C26   C     C_R   0.784572 0.726969 0.664231 -0.184826
C27   C     C_R   0.731797 0.819173 0.730515 -0.138949
C28   C     C_R   0.752521 0.932391 0.695757 -0.086960
C29   C     C_R   0.822543 0.953571 0.591655 -0.087670
C30   C     C_R   0.872995 0.861699 0.523585 -0.162297
C31   C     C_R   0.870668 0.676212 0.335753 0.079967
C32   C     C_R   0.755031 0.732459 0.320764 -0.075195
C33   C     C_R   0.701964 0.756802 0.205282 -0.098182
C34   C     C_1   0.505384 0.839069 0.500389 -0.210349
C35   C     C_R   0.760979 0.723812 0.097048 -0.125618
C36   C     C_R   0.873217 0.667782 0.104896 -0.123152
C37   C     C_R   0.926605 0.645252 0.220947 -0.134603
C38   C     C_1   0.503713 0.940909 0.499247 0.004012
C39   C     C_R   0.256696 0.504813 0.499632 0.933366
C40   C     C_R   0.742833 0.504392 0.500654 0.929559
C41   C     C_1   0.500018 0.500161 0.069672 0.040653
C42   C     C_1   0.500023 0.500164 0.930336 0.045729
H1    H     H_    0.108342 0.503003 0.705277 0.140976
H2    H     H_    0.205624 0.595496 0.254086 0.149081
H3    H     H_    0.300992 0.722392 0.116280 0.123348
H4    H     H_    0.292033 0.933689 0.149571 0.136152
H5    H     H_    0.187792 0.013324 0.334709 0.184208
H6    H     H_    0.099533 0.888767 0.485516 0.163308
H7    H     H_    0.770529 0.645342 0.705442 0.160849
H8    H     H_    0.674411 0.802476 0.809666 0.123452
H9    H     H_    0.711466 0.003475 0.747316 0.153755
H10   H     H_    0.833901 0.041322 0.560485 0.190640
H11   H     H_    0.910351 0.883368 0.434657 0.156540
H12   H     H_    0.091509 0.467168 0.302765 0.106787
H13   H     H_    0.704014 0.759942 0.399379 0.126048
H14   H     H_    0.613845 0.800234 0.200284 0.136226
H15   H     H_    0.719059 0.740095 0.007587 0.115980
H16   H     H_    0.918245 0.638899 0.020588 0.126008
H17   H     H_    0.007855 0.597176 0.214948 0.112450
H18   H     H_    0.907169 0.518546 0.703604 0.096407
H19   H     H_    0.890770 0.453328 0.305340 0.152930
H20   H     H_    0.293391 0.747892 0.544254 0.128799
H21   H     H_    0.380297 0.845020 0.727086 0.142220
H22   H     H_    0.260380 0.861834 0.919499 0.126911
H23   H     H_    0.056262 0.773803 0.928371 0.139865
H24   H     H_    0.975838 0.671978 0.755497 0.117912
I1    I     I_    0.156598 0.288567 0.675954 -0.256150
I2    I     I_    0.164605 0.271291 0.345594 -0.325450
I3    I     I_    0.842595 0.312423 0.713619 -0.300077
I4    I     I_    0.846942 0.254863 0.386666 -0.311551
N1    N     N_1   0.500000 0.500010 0.180630 -0.076345
N2    N     N_1   0.500000 0.500010 0.819370 -0.075144
O1    O     O_R   0.500000 0.334450 0.602530 -0.586716
O2    O     O_R   0.500000 0.334450 0.397470 -0.588781
O3    O     O_R   0.314800 0.499980 0.602530 -0.602171
O4    O     O_R   0.314800 0.499980 0.397470 -0.625001
O5    O     O_R   0.685200 0.499980 0.602530 -0.621830
O6    O     O_R   0.685200 0.499980 0.397470 -0.607915
O7    O     O_R   0.500000 0.665550 0.602530 -0.627188
O8    O     O_R   0.500000 0.665550 0.397470 -0.621978
Zn1   Zn    Zn3+2 0.500000 0.500000 0.636920 1.004904
Zn2   Zn    Zn3+2 0.500000 0.500000 0.363080 1.003888

loop_
_geom_bond_atom_site_label_1
_geom_bond_atom_site_label_2
_ccdc_geom_bond_type
C6    I3    S    
C41   C42   S    
C35   C36   A    
C7    I4    S    
C17   H24   S    
C18   C24   A    
C1    O2    A    
C36   C37   A    
C36   H16   S    
C28   H9    S    
C6    C23   S    
C23   C40   S    
C18   C19   A    
C7    H19   S    
C2    O7    A    
C10   C31   S    
C11   C17   A    
C13   H20   S    
C19   C20   A    
C16   C17   A    
C15   H22   S    
C39   O3    A    
C4    C12   S    
C9    C10   S    
C32   H13   S    
N2    Zn1   S    
C27   H8    S    
C41   N1    T    
N1    Zn2   S    
C2    C34   S    
C33   H14   S    
C22   H5    S    
C13   C14   A    
C8    C38   S    
O2    Zn2   S    
C5    I2    S    
O1    Zn1   S    
C30   H11   S    
C24   H6    S    
C6    H18   S    
C5    H12   S    
C5    C12   S    
O8    Zn2   S    
C3    C8    T    
C26   H7    S    
O4    Zn2   S    
C5    C7    S    
O3    Zn1   S    
C25   C26   A    
C31   C37   A    
C1    C3    S    
C29   C30   A    
O6    Zn2   S    
C31   C32   A    
O5    Zn1   S    
C42   N2    T    
C26   C27   A    
C39   O4    A    
C9    C11   S    
C37   H17   S    
C10   C25   S    
C4    C6    S    
C22   C24   A    
C19   H2    S    
O7    Zn1   S    
C21   H4    S    
C25   C30   A    
C28   C29   A    
C34   C38   T    
C20   H3    S    
C4    I1    S    
C4    H1    S    
C10   C23   S    
C35   H15   S    
C1    O1    A    
C32   C33   A    
C12   C39   S    
C11   C13   A    
C7    C23   S    
C14   H21   S    
C33   C35   A    
C40   O6    A    
C40   O5    A    
C9    C12   S    
C2    O8    A    
C9    C18   S    
C20   C21   A    
C27   C28   A    
C14   C15   A    
C16   H23   S    
C21   C22   A    
C15   C16   A    
C29   H10   S    
