data_mof_unit_58502.cif
_audit_creation_date              2012-12-11T15:59:39-0500
_audit_creation_method            fapswitch 2.2
_symmetry_space_group_name_H-M    P1
_symmetry_Int_Tables_number       1
_space_group_crystal_system       triclinic
_cell_length_a                    10.766032
_cell_length_b                    10.700189
_cell_length_c                    17.076664
_cell_angle_alpha                 99.47229
_cell_angle_beta                  99.963797
_cell_angle_gamma                 60.576804
_cell_volume                      1680.34834601

loop_
_atom_site_label
_atom_site_type_symbol
_atom_type_description
_atom_site_fract_x
_atom_site_fract_y
_atom_site_fract_z
_atom_type_partial_charge
C1    C     C_R   0.377629 0.719279 0.387989 0.559349
C2    C     C_R   0.858217 0.202828 0.198798 -0.008297
C3    C     C_R   0.870554 0.208100 0.282688 0.012085
C4    C     C_R   0.814138 0.459782 0.291787 -0.153351
C5    C     C_R   0.816474 0.451171 0.211603 -0.137434
C6    C     C_R   0.868175 0.075364 0.153373 -0.034887
C7    C     C_R   0.921051 0.946816 0.189207 0.142352
C8    C     C_R   0.950707 0.950610 0.272508 -0.116226
C9    C     C_R   0.920504 0.080265 0.318915 -0.116967
C10   C     C_R   0.834750 0.341542 0.327917 0.010592
C11   C     C_R   0.364101 0.793673 0.149974 0.042013
C12   C     C_R   0.369170 0.346303 0.357480 0.564461
C13   C     C_R   0.464096 0.814466 0.208624 0.036612
C14   C     C_R   0.446455 0.821474 0.289502 0.000079
C15   C     C_R   0.297440 0.704186 0.246956 -0.158681
C16   C     C_R   0.292843 0.724887 0.168571 -0.138420
C17   C     C_R   0.573867 0.838326 0.190225 0.030120
C18   C     C_R   0.637217 0.902076 0.249484 -0.155365
C19   C     C_R   0.602195 0.931655 0.327183 -0.131751
C20   C     C_R   0.507305 0.892481 0.347416 -0.096684
C21   C     C_R   0.366956 0.758685 0.308403 0.005542
C22   C     C_R   0.300320 0.278474 0.799710 0.001026
C23   C     C_R   0.778454 0.375824 0.404452 0.540424
C24   C     C_R   0.427176 0.177717 0.763729 0.026983
C25   C     C_R   0.479428 0.227076 0.713479 0.005473
C26   C     C_R   0.250232 0.448650 0.706790 -0.141253
C27   C     C_R   0.211938 0.412807 0.769861 -0.147069
C28   C     C_R   0.507774 0.031351 0.779712 -0.115636
C29   C     C_R   0.646411 0.944985 0.758418 -0.103681
C30   C     C_R   0.708420 0.002426 0.720097 0.156522
C31   C     C_R   0.625151 0.143730 0.698822 -0.045924
C32   C     C_R   0.382588 0.355340 0.677062 -0.001953
C33   C     C_1   0.846873 0.328270 0.705509 -0.054406
C34   C     C_R   0.358349 0.768791 0.627521 0.554813
C35   C     C_1   0.893716 0.293573 0.772245 -0.040231
C36   C     C_1   0.339306 0.809193 0.709585 -0.053505
C37   C     C_1   0.312809 0.837160 0.777507 -0.053627
C38   C     C_R   0.892668 0.308381 0.087849 0.581858
C39   C     C_R   0.319332 0.300053 0.120069 0.564018
C40   C     C_R   0.300037 0.882349 0.082001 0.580906
C41   C     C_R   0.943535 0.273358 0.854669 0.545253
C42   C     C_R   0.279309 0.253624 0.877023 0.524830
C43   C     C_R   0.278749 0.884776 0.857253 0.545930
C44   C     C_R   0.408387 0.375904 0.600059 0.552318
C45   C     C_R   0.778094 0.378025 0.629018 0.540209
C46   C     C_1   0.342662 0.336507 0.274108 -0.043576
C47   C     C_1   0.331805 0.326406 0.203328 -0.043575
C48   C     C_R   0.840100 0.324365 0.163935 0.008608
Cr1   Cr    Cr6+3 0.608100 0.610860 0.522250 1.008358
Cr2   Cr    Cr6+3 0.288890 0.599990 0.488420 0.994330
Cr3   Cr    Cr6+3 0.603040 0.289190 0.489390 0.978662
Cr4   Cr    Cr6+3 0.053960 0.052250 0.967380 1.011190
Cr5   Cr    Cr6+3 0.059890 0.373160 0.992710 1.015581
Cr6   Cr    Cr6+3 0.373370 0.061690 0.991710 1.017483
H1    H     H_    0.790158 0.563273 0.324813 0.153680
H2    H     H_    0.714509 0.928229 0.235603 0.139028
H3    H     H_    0.652131 0.981290 0.372457 0.144094
H4    H     H_    0.479562 0.923362 0.407944 0.155886
H5    H     H_    0.176254 0.549175 0.681258 0.139522
H6    H     H_    0.465459 0.982984 0.809783 0.155973
H7    H     H_    0.113718 0.490172 0.795354 0.135966
H8    H     H_    0.706298 0.834507 0.773497 0.114598
H9    H     H_    0.674944 0.188044 0.671177 0.155770
H10   H     H_    0.831496 0.076696 0.090621 0.141111
H11   H     H_    0.807340 0.543186 0.187907 0.173850
H12   H     H_    0.989921 0.853842 0.302007 0.119936
H13   H     H_    0.940954 0.078889 0.383187 0.132083
H14   H     H_    0.242469 0.649305 0.259925 0.123384
H15   H     H_    0.227692 0.693800 0.122944 0.143019
O1    O     O_R   0.749810 0.499790 0.438040 -0.526023
O2    O     O_R   0.298970 0.468800 0.557390 -0.495774
O3    O     O_R   0.489400 0.255930 0.561910 -0.524922
O4    O     O_R   0.723890 0.306050 0.584610 -0.539728
O5    O     O_3   0.500010 0.500010 0.500020 -0.275120
O6    O     O_R   0.171100 0.914680 0.053100 -0.535579
O7    O     O_R   0.941680 0.184840 0.050710 -0.513572
O8    O     O_R   0.922080 0.403420 0.072610 -0.486580
O9    O     O_R   0.196880 0.369150 0.083850 -0.504297
O10   O     O_R   0.411730 0.181020 0.091530 -0.511132
O11   O     O_R   0.365010 0.944360 0.063320 -0.480415
O12   O     O_R   0.477660 0.726260 0.439290 -0.509302
O13   O     O_R   0.159380 0.906670 0.876210 -0.507927
O14   O     O_R   0.930820 0.177420 0.886730 -0.473841
O15   O     O_R   0.910360 0.395420 0.895720 -0.501731
O16   O     O_R   0.186010 0.361730 0.919870 -0.512392
O17   O     O_R   0.400000 0.173010 0.914630 -0.508924
O18   O     O_R   0.354140 0.936940 0.899340 -0.529186
O19   O     O_3   0.162410 0.162370 0.983930 -0.289617
O20   O     O_R   0.260150 0.743000 0.412270 -0.524824
O21   O     O_R   0.297740 0.466550 0.394720 -0.509871
O22   O     O_R   0.488080 0.253500 0.386430 -0.513934
O23   O     O_R   0.722670 0.303800 0.421940 -0.506358
O24   O     O_R   0.751130 0.502220 0.613520 -0.501403
O25   O     O_R   0.478890 0.728510 0.601960 -0.487143
O26   O     O_R   0.261470 0.745430 0.587750 -0.531766
N1    N     N_2   0.853855 0.918693 0.703244 -0.510780
H16   H     H_    0.912627 0.827718 0.733656 0.250010
C49   C     C_3   0.874683 0.889920 0.619370 -0.297111
H17   H     H_    0.990818 0.823313 0.612737 0.166460
H18   H     H_    0.834983 0.991720 0.591827 0.157011
H19   H     H_    0.818057 0.829921 0.587397 0.136499
N2    N     N_2   0.936109 0.815237 0.144554 -0.559871
H20   H     H_    0.998325 0.722380 0.173000 0.246979
C50   C     C_3   0.932064 0.796387 0.058160 -0.299607
H21   H     H_    0.941444 0.688852 0.035882 0.159564
H22   H     H_    0.021649 0.802096 0.039109 0.177216
H23   H     H_    0.829235 0.878467 0.029907 0.121233
C51   C     C_2   0.634666 0.786135 0.112704 0.245727
H24   H     H_    0.682737 0.840421 0.092037 0.126423
O27   O     O_2   0.628748 0.684535 0.070922 -0.511769

loop_
_geom_bond_atom_site_label_1
_geom_bond_atom_site_label_2
_ccdc_geom_bond_type
C25   C31   A    
C1    C21   S    
C33   C45   S    
C12   O22   A    
Cr5   O8    S    
C19   C20   A    
Cr3   O5    S    
Cr4   O6    S    
C45   O24   A    
C50   H22   S    
C7    C8    A    
C38   O7    A    
C19   H3    S    
C8    H12   S    
C26   C27   A    
Cr5   O15   S    
C14   C21   A    
C12   O21   A    
C28   C29   A    
Cr2   O5    S    
C30   C31   A    
Cr2   O26   S    
C6    H10   S    
C15   C16   A    
C41   O14   A    
C51   H24   S    
C44   O2    A    
C45   O4    A    
C18   C19   A    
Cr1   O12   S    
C30   N1    S    
C27   H7    S    
Cr3   O22   S    
C46   C47   T    
Cr2   O21   S    
C8    C9    A    
C7    N2    S    
N1    C49   S    
C22   C42   S    
C40   O11   A    
C42   O17   A    
Cr1   O25   S    
C24   C28   A    
C26   H5    S    
C38   C48   S    
C18   H2    S    
C25   C32   A    
C13   C14   A    
C23   O1    A    
C2    C6    A    
C50   H21   S    
Cr6   O11   S    
C28   H6    S    
C5    C48   A    
C11   C40   S    
C39   O9    A    
C14   C20   A    
Cr4   O19   S    
C24   C25   A    
C12   C46   S    
C17   C51   S    
Cr6   O17   S    
C26   C32   A    
C2    C48   A    
C41   O15   A    
C39   O10   A    
C37   C43   S    
Cr4   O14   S    
N2    C50   S    
Cr2   O2    S    
C9    H13   S    
C29   C30   A    
C3    C9    A    
C31   H9    S    
Cr3   O23   S    
Cr3   O4    S    
C11   C16   A    
Cr2   O20   S    
N1    H16   S    
C17   C18   A    
C32   C44   S    
C1    O12   A    
C42   O16   A    
C34   O26   A    
Cr4   O13   S    
C5    H11   S    
C49   H18   S    
Cr1   O1    S    
C4    H1    S    
C22   C24   A    
Cr3   O3    S    
C20   H4    S    
C39   C47   S    
Cr6   O10   S    
C29   H8    S    
C36   C37   T    
C1    O20   A    
Cr1   O5    S    
C16   H15   S    
C34   O25   A    
C4    C5    A    
Cr4   O7    S    
C6    C7    A    
C38   O8    A    
C10   C23   S    
C49   H19   S    
C40   O6    A    
C13   C17   A    
C22   C27   A    
C43   O18   A    
C2    C3    A    
C3    C10   A    
Cr6   O19   S    
C11   C13   A    
Cr6   O18   S    
C15   H14   S    
C33   C35   T    
C51   O27   D    
C44   O3    A    
Cr5   O19   S    
C34   C36   S    
N2    H20   S    
C35   C41   S    
Cr5   O9    S    
C15   C21   A    
C49   H17   S    
C43   O13   A    
C23   O23   A    
Cr5   O16   S    
Cr1   O24   S    
C4    C10   A    
C50   H23   S    
