data_mof_unit_26627.cif
_audit_creation_date              2012-10-26T21:14:54-0400
_audit_creation_method            fapswitch 2.2
_symmetry_space_group_name_H-M    P1
_symmetry_Int_Tables_number       1
_space_group_crystal_system       triclinic
_cell_length_a                    14.997212
_cell_length_b                    10.971672
_cell_length_c                    13.801085
_cell_angle_alpha                 89.97572
_cell_angle_beta                  88.569746
_cell_angle_gamma                 89.927238
_cell_volume                      2270.18300325

loop_
_atom_site_label
_atom_site_type_symbol
_atom_type_description
_atom_site_fract_x
_atom_site_fract_y
_atom_site_fract_z
_atom_type_partial_charge
C1    C     C_R   0.500395 0.262518 0.499536 0.551348
C2    C     C_R   0.597040 0.871120 0.646541 0.051591
C3    C     C_R   0.444008 0.157768 0.260344 -0.048163
C4    C     C_R   0.553908 0.844404 0.735440 -0.041289
C5    C     C_R   0.395803 0.217965 0.189311 -0.098323
C6    C     C_R   0.598613 0.780817 0.807396 -0.097946
C7    C     C_R   0.306466 0.248461 0.207238 -0.092798
C8    C     C_R   0.687263 0.745303 0.791647 -0.091007
C9    C     C_R   0.454188 0.936684 0.424694 -0.012748
C10   C     C_R   0.554563 0.064992 0.565494 -0.017596
C11   C     C_R   0.499835 0.872433 0.498682 0.009380
C12   C     C_R   0.500058 0.737902 0.499787 0.552925
C13   C     C_R   0.503054 0.128724 0.497354 0.008525
C14   C     C_R   0.548698 0.937004 0.569481 -0.027685
C15   C     C_R   0.455069 0.064975 0.425764 -0.025791
C16   C     C_R   0.328826 0.500262 0.501452 0.533659
C17   C     C_R   0.670944 0.497312 0.498777 0.538195
C18   C     C_R   0.571552 0.456554 0.791654 0.010607
C19   C     C_R   0.429651 0.547153 0.208302 0.021609
C20   C     C_R   0.427152 0.545678 0.796210 0.160314
C21   C     C_R   0.572404 0.452749 0.203936 0.129097
C22   C     C_R   0.421989 0.537760 0.899955 -0.009139
C23   C     C_R   0.050130 0.280237 0.469972 -0.086796
C24   C     C_R   0.578041 0.461090 0.100170 -0.058215
C25   C     C_R   0.498798 0.498708 0.948402 0.015278
C26   C     C_R   0.501510 0.501250 0.051671 0.020901
C27   C     C_R   0.573290 0.457613 0.893603 -0.053432
C28   C     C_R   0.427457 0.544322 0.106384 -0.031589
C29   C     C_R   0.345195 0.571712 0.957996 0.010012
C30   C     C_R   0.655014 0.427055 0.042266 0.007026
C31   C     C_R   0.350762 0.580129 0.059005 -0.158847
C32   C     C_R   0.649972 0.421804 0.940882 -0.120501
C33   C     C_R   0.812609 0.604773 0.506805 -0.131758
C34   C     C_R   0.949075 0.714670 0.531195 -0.092102
C35   C     C_R   0.187111 0.391511 0.490223 -0.119746
C36   C     C_R   0.767272 0.495961 0.495630 0.004000
C37   C     C_R   0.232125 0.499887 0.505531 0.006027
C38   C     C_R   0.813314 0.386605 0.482199 -0.143655
C39   C     C_R   0.185183 0.606643 0.527042 -0.146588
C40   C     C_R   0.907223 0.384772 0.480967 -0.011834
C41   C     C_R   0.091657 0.609468 0.522717 -0.009049
C42   C     C_R   0.952894 0.496147 0.498591 0.048275
C43   C     C_R   0.046271 0.498633 0.502734 0.050549
C44   C     C_R   0.904911 0.605608 0.511934 -0.014136
C45   C     C_R   0.264894 0.216120 0.295284 -0.107659
C46   C     C_R   0.094463 0.389608 0.488145 -0.009138
C47   C     C_R   0.956867 0.275901 0.464811 0.022877
C48   C     C_R   0.042057 0.718500 0.538007 0.017875
C49   C     C_3   0.401391 0.870856 0.345795 -0.256586
C50   C     C_3   0.316464 0.812935 0.387142 -0.416021
C51   C     C_3   0.623675 0.131508 0.626240 -0.250701
C52   C     C_3   0.591688 0.154372 0.730812 -0.396485
C53   C     C_2   0.359008 0.617137 0.746166 0.304436
C54   C     C_2   0.640302 0.381375 0.254467 0.300514
C55   C     C_2   0.254391 0.585572 0.920420 0.209790
C56   C     C_R   0.731631 0.775409 0.704670 -0.096008
C57   C     C_2   0.745247 0.411184 0.081658 0.233507
C58   C     C_2   0.914457 0.157655 0.439233 0.239475
C59   C     C_2   0.084404 0.837921 0.559541 0.260476
C60   C     C_R   0.313508 0.157198 0.366915 -0.102349
C61   C     C_R   0.686685 0.838408 0.632379 -0.103413
C62   C     C_R   0.404219 0.131979 0.351264 0.049950
Cu1   Cu    Cu3+1 0.500010 0.499980 0.597420 0.972707
Cu2   Cu    Cu3+1 0.499990 0.500020 0.402580 0.962947
H1    H     H_    0.775461 0.688520 0.512019 0.099422
H2    H     H_    0.910393 0.797563 0.541117 0.168295
H3    H     H_    0.268966 0.294621 0.152125 0.133081
H4    H     H_    0.721914 0.696094 0.847357 0.119495
H5    H     H_    0.194854 0.235964 0.307625 0.118952
H6    H     H_    0.800946 0.750455 0.693564 0.126195
H7    H     H_    0.280523 0.128550 0.433738 0.100590
H8    H     H_    0.721764 0.864726 0.566204 0.095932
H9    H     H_    0.511354 0.128046 0.243925 0.170685
H10   H     H_    0.486640 0.876138 0.749628 0.167857
H11   H     H_    0.427313 0.239394 0.119975 0.126915
H12   H     H_    0.224645 0.308581 0.481608 0.101312
H13   H     H_    0.564756 0.759908 0.875554 0.116959
H14   H     H_    0.332454 0.746361 0.443921 0.168314
H15   H     H_    0.272028 0.884297 0.418667 0.143103
H16   H     H_    0.280735 0.765109 0.328858 0.132667
H17   H     H_    0.380022 0.931019 0.286505 0.141164
H18   H     H_    0.443052 0.804615 0.304778 0.172038
H19   H     H_    0.525836 0.200443 0.733605 0.186428
H20   H     H_    0.586581 0.068834 0.772562 0.150592
H21   H     H_    0.641187 0.212003 0.767619 0.131882
H22   H     H_    0.687145 0.079705 0.626821 0.144356
H23   H     H_    0.629042 0.424448 0.750378 0.132472
H24   H     H_    0.643984 0.219370 0.592677 0.152554
H25   H     H_    0.297467 0.574573 0.724696 0.163169
H26   H     H_    0.701695 0.424110 0.276290 0.094294
H27   H     H_    0.214332 0.664305 0.940960 0.123250
H28   H     H_    0.768669 0.472204 0.137167 0.080702
H29   H     H_    0.845334 0.152155 0.419232 0.109974
H30   H     H_    0.154064 0.855022 0.542966 0.093342
H31   H     H_    0.373425 0.583540 0.249503 0.128817
H32   H     H_    0.292474 0.607951 0.101734 0.098664
H33   H     H_    0.708391 0.395501 0.897797 0.148773
H34   H     H_    0.774286 0.304765 0.474624 0.088977
H35   H     H_    0.222838 0.685747 0.547148 0.094723
H36   H     H_    0.089055 0.197986 0.457969 0.160738
N1    N     N_R   0.499960 0.499900 0.743810 -0.249198
N2    N     N_R   0.500040 0.500100 0.256190 -0.245489
O1    O     O_R   0.500000 0.319630 0.582270 -0.516507
O2    O     O_2   0.630393 0.272664 0.268639 -0.525925
O3    O     O_2   0.221141 0.504372 0.872904 -0.511039
O4    O     O_2   0.795604 0.332552 0.049661 -0.475417
O5    O     O_2   0.957563 0.063112 0.438127 -0.483060
O6    O     O_2   0.040828 0.920712 0.596316 -0.462767
O7    O     O_R   0.500000 0.680370 0.417730 -0.523641
O8    O     O_R   0.499990 0.319660 0.417730 -0.454963
O9    O     O_R   0.500010 0.680340 0.582270 -0.454703
O10   O     O_R   0.370260 0.499960 0.582280 -0.515152
O11   O     O_R   0.629740 0.500040 0.417720 -0.519209
O12   O     O_R   0.370250 0.499990 0.417740 -0.511094
O13   O     O_R   0.629750 0.500010 0.582260 -0.511221
O14   O     O_2   0.369038 0.725815 0.731916 -0.552075

loop_
_geom_bond_atom_site_label_1
_geom_bond_atom_site_label_2
_ccdc_geom_bond_type
C40   C47   A    
C30   C32   A    
C45   C60   A    
C57   H28   S    
Cu1   N1    S    
C50   H15   S    
C8    C56   A    
C33   H1    S    
C39   C41   A    
Cu2   N2    S    
C16   O10   A    
C55   O3    D    
C7    C45   A    
C54   O2    D    
C52   H21   S    
C22   C29   A    
C58   H29   S    
C24   C26   A    
C54   H26   S    
C21   C54   S    
C19   N2    A    
C31   H32   S    
C30   C57   S    
C33   C36   A    
C32   H33   S    
C60   C62   A    
C58   O5    D    
C49   H17   S    
Cu1   O10   S    
C52   H20   S    
C55   H27   S    
Cu2   O8    S    
C41   C48   A    
C22   C25   A    
C17   C36   S    
C1    O1    A    
C4    H10   S    
C53   O14   D    
C38   H34   S    
C16   C37   S    
Cu1   O13   S    
C40   C42   A    
C57   O4    D    
C23   C46   A    
C41   C43   A    
C34   H2    S    
C42   C44   A    
C2    C14   S    
C10   C51   S    
C50   H14   S    
C51   H22   S    
C12   O7    A    
C35   H12   S    
C23   C47   A    
C45   H5    S    
C51   C52   S    
C9    C49   S    
Cu1   O1    S    
C10   C14   A    
C5    C7    A    
C6    H13   S    
C6    C8    A    
C20   N1    A    
C29   C55   S    
C60   H7    S    
C25   C26   A    
C16   O12   A    
C18   N1    A    
C49   H18   S    
C5    H11   S    
C52   H19   S    
C2    C4    A    
C1    O8    A    
C39   H35   S    
C34   C44   A    
C19   C28   A    
C9    C11   A    
C17   O11   A    
C21   N2    A    
C61   H8    S    
C4    C6    A    
C59   H30   S    
C20   C22   A    
C8    H4    S    
C56   H6    S    
C13   C15   A    
C53   H25   S    
C1    C13   S    
C42   C43   A    
C19   H31   S    
C17   O13   A    
C48   C59   S    
C3    C62   A    
Cu2   O11   S    
C35   C37   A    
C27   C32   A    
C33   C44   A    
C28   C31   A    
C18   C27   A    
C59   O6    D    
C20   C53   S    
C3    C5    A    
C10   C13   A    
C50   H16   S    
C51   H24   S    
C11   C12   S    
C2    C61   A    
C25   C27   A    
C26   C28   A    
C18   H23   S    
C36   C38   A    
C9    C15   A    
C37   C39   A    
C47   C58   S    
C38   C40   A    
Cu2   O7    S    
C11   C14   A    
C15   C62   S    
C23   H36   S    
Cu1   O9    S    
C3    H9    S    
C43   C46   A    
C24   C30   A    
C7    H3    S    
Cu1   Cu2   S    
C34   C48   A    
Cu2   O12   S    
C29   C31   A    
C49   C50   S    
C21   C24   A    
C56   C61   A    
C35   C46   A    
C12   O9    A    
