data_mof_unit_40903.cif
_audit_creation_date              2012-12-11T16:08:54-0500
_audit_creation_method            fapswitch 2.2
_symmetry_space_group_name_H-M    P1
_symmetry_Int_Tables_number       1
_space_group_crystal_system       triclinic
_cell_length_a                    12.989013
_cell_length_b                    13.265062
_cell_length_c                    27.685177
_cell_angle_alpha                 94.715557
_cell_angle_beta                  90.152463
_cell_angle_gamma                 119.38691
_cell_volume                      4137.21142327

loop_
_atom_site_label
_atom_site_type_symbol
_atom_type_description
_atom_site_fract_x
_atom_site_fract_y
_atom_site_fract_z
_atom_type_partial_charge
C1    C     C_R   0.628056 0.895863 0.427622 0.535046
C2    C     C_R   0.183004 0.747314 0.298010 0.009142
C3    C     C_3   0.347814 0.663464 0.159458 -0.422403
C4    C     C_3   0.153512 0.540041 0.290932 -0.282082
C5    C     C_3   0.026966 0.476937 0.307813 -0.442114
C6    C     C_2   0.157417 0.016136 0.128220 0.241822
C7    C     C_R   0.179499 0.746492 0.197248 0.003938
C8    C     C_R   0.601018 0.221983 0.440533 0.535465
C9    C     C_R   0.196860 0.662040 0.218521 0.029071
C10   C     C_R   0.180124 0.652192 0.268862 0.030510
C11   C     C_R   0.152560 0.734372 0.147957 -0.156599
C12   C     C_R   0.133167 0.815071 0.126031 0.006162
C13   C     C_R   0.212289 0.946744 0.355685 -0.135574
C14   C     C_R   0.198776 0.940520 0.305435 0.015915
C15   C     C_R   0.188179 0.842726 0.276397 0.040159
C16   C     C_R   0.616735 0.233070 0.218128 -0.110878
C17   C     C_R   0.202308 0.033564 0.283774 -0.128253
C18   C     C_R   0.191122 0.028997 0.233591 -0.136753
C19   C     C_R   0.176663 0.930987 0.203812 -0.011753
C20   C     C_R   0.269310 0.876257 0.425531 0.544538
C21   C     C_R   0.180843 0.839792 0.225833 0.025075
C22   C     C_R   0.156676 0.920358 0.152872 0.000983
C23   C     C_R   0.213948 0.855815 0.377073 -0.013216
C24   C     C_R   0.695464 0.962807 0.350023 -0.138230
C25   C     C_R   0.698249 0.946837 0.300648 0.000942
C26   C     C_R   0.705864 0.917696 0.200732 0.012929
C27   C     C_R   0.604993 0.216473 0.267473 -0.114791
C28   C     C_R   0.749830 0.029245 0.224142 -0.132916
C29   C     C_R   0.746070 0.043795 0.273989 -0.135451
C30   C     C_R   0.718689 0.904632 0.151378 -0.136695
C31   C     C_R   0.681207 0.794441 0.128522 -0.003202
C32   C     C_R   0.627429 0.898094 0.564779 0.547312
C33   C     C_R   0.603888 0.753403 0.356575 0.002801
C34   C     C_R   0.601115 0.735832 0.305177 0.012377
C35   C     C_R   0.650335 0.833362 0.277737 0.041167
C36   C     C_R   0.548558 0.623744 0.280508 -0.111910
C37   C     C_R   0.551238 0.606316 0.229941 0.005153
C38   C     C_R   0.665090 0.311176 0.302677 0.022499
C39   C     C_R   0.608096 0.705543 0.203562 -0.004307
C40   C     C_R   0.653714 0.818498 0.227336 0.043813
C41   C     C_R   0.622659 0.695515 0.153822 -0.153900
C42   C     C_R   0.646941 0.868185 0.377947 0.017003
C43   C     C_R   0.759099 0.331636 0.647579 -0.000740
C44   C     C_R   0.605803 0.232218 0.577367 0.535479
C45   C     C_R   0.765908 0.342044 0.699131 0.029429
C46   C     C_R   0.773952 0.358831 0.801912 0.015709
C47   C     C_R   0.865911 0.356861 0.776528 -0.138439
C48   C     C_R   0.861298 0.346874 0.725888 -0.130281
C49   C     C_R   0.688759 0.344532 0.203844 0.026646
C50   C     C_R   0.781452 0.376267 0.852792 -0.132869
C51   C     C_R   0.690493 0.382609 0.877812 -0.005688
C52   C     C_R   0.577585 0.343574 0.648658 0.008730
C53   C     C_R   0.578029 0.344726 0.699560 0.018042
C54   C     C_R   0.672237 0.343353 0.724746 0.032200
C55   C     C_R   0.483551 0.341217 0.725743 -0.134362
C56   C     C_R   0.271141 0.878915 0.563235 0.547157
C57   C     C_R   0.485050 0.342490 0.775942 -0.139894
C58   C     C_R   0.581428 0.348925 0.801294 0.013426
C59   C     C_R   0.675379 0.349106 0.775939 0.064783
C60   C     C_1   0.695501 0.365167 0.153461 -0.068532
C61   C     C_R   0.587688 0.361362 0.851800 -0.127799
C62   C     C_R   0.652422 0.309786 0.623541 0.008870
C63   C     C_1   0.219111 0.860213 0.609514 -0.019508
C64   C     C_R   0.173949 0.749757 0.723525 -0.107425
C65   C     C_R   0.162331 0.743931 0.773505 -0.101744
C66   C     C_R   0.128698 0.908824 0.778837 -0.103779
C67   C     C_R   0.140360 0.914672 0.728733 -0.102776
C68   C     C_1   0.632297 0.267622 0.394395 -0.028243
C69   C     C_R   0.163215 0.835168 0.701011 0.040057
C70   C     C_R   0.140942 0.824149 0.801371 0.041372
C71   C     C_1   0.650535 0.292577 0.353226 -0.073393
C72   C     C_1   0.123151 0.813559 0.852364 -0.056753
C73   C     C_1   0.188085 0.847717 0.650596 -0.062608
C74   C     C_1   0.099823 0.797293 0.894089 -0.010850
C75   C     C_1   0.649349 0.857429 0.608138 -0.023321
C76   C     C_R   0.785841 0.885755 0.723040 -0.103563
C77   C     C_R   0.797725 0.870674 0.771744 -0.101741
C78   C     C_R   0.609879 0.691294 0.763545 -0.100092
C79   C     C_R   0.597937 0.706444 0.714721 -0.105011
C80   C     C_R   0.737343 0.422478 0.288372 -0.128730
C81   C     C_R   0.685120 0.804741 0.694546 0.038247
C82   C     C_1   0.703092 0.392673 0.112669 -0.017105
C83   C     C_R   0.708796 0.774669 0.792425 0.041366
C84   C     C_1   0.718344 0.764634 0.843545 -0.057530
C85   C     C_1   0.666131 0.829821 0.646636 -0.063957
C86   C     C_1   0.729918 0.759161 0.886393 -0.014544
C87   C     C_R   0.066506 0.773812 0.078871 0.574175
C88   C     C_R   0.716731 0.440716 0.067096 0.550119
C89   C     C_R   0.720310 0.781263 0.080896 0.553693
C90   C     C_R   0.056493 0.766403 0.941199 0.546601
C91   C     C_R   0.710824 0.435570 0.928331 0.538643
C92   C     C_R   0.749077 0.439111 0.239059 -0.118356
C93   C     C_R   0.190266 0.753826 0.348629 -0.135390
C94   C     C_R   0.749800 0.753838 0.937018 0.560896
C95   C     C_3   0.495116 0.483759 0.203719 -0.274446
C96   C     C_3   0.429474 0.382317 0.234759 -0.443261
C97   C     C_3   0.567442 0.653353 0.388358 -0.275619
C98   C     C_3   0.656307 0.609119 0.387176 -0.449677
C99   C     C_3   0.867469 0.356300 0.618626 -0.267820
C100  C     C_3   0.964055 0.483866 0.627837 -0.451362
C101  C     C_3   0.506181 0.387378 0.621842 -0.259390
C102  C     C_3   0.579878 0.474226 0.585907 -0.428996
C103  C     C_3   0.239226 0.588955 0.187875 -0.284733
Cr1   Cr    Cr6+3 0.416430 0.829200 0.492370 1.010452
Cr2   Cr    Cr6+3 0.674630 0.087020 0.504170 1.005951
Cr3   Cr    Cr6+3 0.408920 0.083740 0.503490 1.009843
Cr4   Cr    Cr6+3 0.914010 0.832750 0.013970 1.062740
Cr5   Cr    Cr6+3 0.922310 0.578600 0.003000 1.017054
Cr6   Cr    Cr6+3 0.656280 0.574630 0.003870 1.023553
H1    H     H_    0.784548 0.496131 0.315202 0.107615
H2    H     H_    0.505019 0.549299 0.300757 0.122180
H3    H     H_    0.804091 0.525959 0.228373 0.119716
H4    H     H_    0.860942 0.392019 0.872548 0.128481
H5    H     H_    0.941826 0.363204 0.795869 0.105855
H6    H     H_    0.933147 0.342344 0.708198 0.109320
H7    H     H_    0.516208 0.364866 0.870600 0.137326
H8    H     H_    0.411522 0.340719 0.795043 0.104043
H9    H     H_    0.405391 0.332939 0.707789 0.099893
H10   H     H_    0.193198 0.688848 0.702558 0.102819
H11   H     H_    0.568651 0.159599 0.191273 0.124893
H12   H     H_    0.193451 0.102902 0.218823 0.092997
H13   H     H_    0.170111 0.676983 0.790416 0.108313
H14   H     H_    0.110277 0.970135 0.799945 0.103678
H15   H     H_    0.133257 0.981926 0.711789 0.103481
H16   H     H_    0.853464 0.962481 0.708030 0.105203
H17   H     H_    0.874903 0.935380 0.793582 0.105549
H18   H     H_    0.540862 0.616284 0.779018 0.110478
H19   H     H_    0.519286 0.643538 0.693189 0.101168
H20   H     H_    0.548481 0.129942 0.278197 0.125640
H21   H     H_    0.135079 0.654555 0.127154 0.149490
H22   H     H_    0.190514 0.684563 0.366389 0.141720
H23   H     H_    0.213143 0.109991 0.305727 0.106606
H24   H     H_    0.490746 0.381860 0.262649 0.168939
H25   H     H_    0.354991 0.387179 0.252286 0.131700
H26   H     H_    0.392528 0.299113 0.211221 0.153743
H27   H     H_    0.430587 0.475101 0.175070 0.141328
H28   H     H_    0.565512 0.472551 0.185813 0.161037
H29   H     H_    0.663386 0.576066 0.350003 0.154727
H30   H     H_    0.745039 0.680294 0.400849 0.154291
H31   H     H_    0.627629 0.537119 0.410796 0.140594
H32   H     H_    0.563266 0.679291 0.426991 0.158905
H33   H     H_    0.477000 0.581706 0.377292 0.128596
H34   H     H_    0.229732 0.025496 0.377696 0.127332
H35   H     H_    0.929361 0.541370 0.617736 0.159188
H36   H     H_    0.996761 0.507823 0.666335 0.155017
H37   H     H_    0.040167 0.499655 0.605268 0.138052
H38   H     H_    0.901967 0.297622 0.627021 0.140429
H39   H     H_    0.847070 0.342372 0.579037 0.166046
H40   H     H_    0.661449 0.546904 0.604708 0.153652
H41   H     H_    0.604714 0.431918 0.555481 0.159322
H42   H     H_    0.527568 0.510672 0.570440 0.132515
H43   H     H_    0.424894 0.314236 0.603328 0.171628
H44   H     H_    0.476734 0.435848 0.647408 0.123434
H45   H     H_    0.763697 0.980318 0.131254 0.123410
H46   H     H_    0.327476 0.700895 0.129039 0.155188
H47   H     H_    0.416844 0.735491 0.184092 0.175253
H48   H     H_    0.383115 0.608349 0.143043 0.138993
H49   H     H_    0.269967 0.543008 0.210383 0.144402
H50   H     H_    0.166383 0.522450 0.162780 0.136912
H51   H     H_    0.008013 0.532817 0.334017 0.150269
H52   H     H_    0.963846 0.447663 0.275894 0.167242
H53   H     H_    0.012341 0.399102 0.325513 0.135756
H54   H     H_    0.158568 0.474848 0.265200 0.133281
H55   H     H_    0.218701 0.558444 0.321049 0.134678
H56   H     H_    0.726998 0.050659 0.366638 0.139480
H57   H     H_    0.116318 0.064304 0.144042 0.089172
H58   H     H_    0.789016 0.105238 0.204031 0.113517
H59   H     H_    0.781638 0.131044 0.291789 0.115256
H60   H     H_    0.594745 0.611051 0.134781 0.136700
O1    O     O_R   0.296680 0.802170 0.437540 -0.523110
O2    O     O_R   0.637200 0.461990 0.052510 -0.507618
O3    O     O_R   0.664790 0.681920 0.057970 -0.504332
O4    O     O_R   0.525380 0.838530 0.443500 -0.504686
O5    O     O_R   0.815840 0.852920 0.961840 -0.501964
O6    O     O_R   0.012100 0.822630 0.963670 -0.501432
O7    O     O_R   0.037010 0.668460 0.953040 -0.509894
O8    O     O_R   0.813390 0.478970 0.949660 -0.503031
O9    O     O_R   0.632250 0.456930 0.945520 -0.522315
O10   O     O_R   0.660200 0.677230 0.958780 -0.491226
O11   O     O_3   0.830870 0.661990 0.006950 -0.277624
O12   O     O_R   0.662610 0.183990 0.557860 -0.507040
O13   O     O_R   0.702130 0.995190 0.446810 -0.522941
O14   O     O_R   0.661770 0.181390 0.458760 -0.502107
O15   O     O_R   0.499820 0.198480 0.455280 -0.514597
O16   O     O_R   0.311660 0.976250 0.449080 -0.500537
O17   O     O_R   0.297580 0.804960 0.544440 -0.512127
O18   O     O_R   0.526220 0.841130 0.542590 -0.498141
O19   O     O_R   0.703030 0.997990 0.553710 -0.508565
O20   O     O_2   0.205784 0.042917 0.089928 -0.494687
O21   O     O_R   0.500730 0.201280 0.562180 -0.517379
O22   O     O_R   0.312500 0.978850 0.548170 -0.492914
O23   O     O_3   0.499990 0.999990 0.500010 -0.234131
O24   O     O_R   0.820790 0.857990 0.068830 -0.509791
O25   O     O_R   0.016700 0.827330 0.062850 -0.458030
O26   O     O_R   0.041970 0.673520 0.060040 -0.531351
O27   O     O_R   0.817980 0.483660 0.048840 -0.492580

loop_
_geom_bond_atom_site_label_1
_geom_bond_atom_site_label_2
_ccdc_geom_bond_type
C47   H5    S    
C20   O1    A    
C79   H19   S    
C6    H57   S    
C101  C102  S    
C12   C22   A    
Cr4   O11   S    
C24   C42   A    
C88   O27   A    
C95   C96   S    
C51   C61   A    
Cr3   O23   S    
C99   H39   S    
C103  H50   S    
C67   H15   S    
C32   C75   S    
C97   C98   S    
C39   C41   A    
C53   C54   A    
C7    C11   A    
C1    O4    A    
C64   H10   S    
Cr4   O6    S    
C98   H29   S    
C33   C42   A    
Cr2   O19   S    
C57   H8    S    
C36   C37   A    
C19   C21   A    
C43   C99   S    
C34   C35   A    
C16   H11   S    
C30   C31   A    
C46   C59   A    
C77   C83   A    
C27   C38   A    
C65   C70   A    
Cr1   O23   S    
C91   O9    A    
C90   O7    A    
C13   C23   A    
C18   C19   A    
C46   C47   A    
C3    H47   S    
C86   C94   S    
C28   H58   S    
C44   O21   A    
C20   O16   A    
C97   H32   S    
C60   C82   T    
Cr6   O9    S    
C75   C85   T    
C47   C48   A    
C100  H37   S    
C31   C89   S    
C4    H55   S    
C69   C73   S    
Cr2   O13   S    
Cr5   O27   S    
C9    C10   A    
C34   C36   A    
C12   C87   S    
Cr6   O3    S    
C102  H42   S    
C51   C91   S    
C8    O15   A    
C58   C61   A    
C66   C67   A    
C56   O22   A    
C88   O2    A    
C13   C14   A    
C17   H23   S    
C76   H16   S    
Cr2   O23   S    
Cr3   O22   S    
C61   H7    S    
C78   H18   S    
C78   C83   A    
C33   C34   A    
C96   H26   S    
C54   C59   A    
C53   C55   A    
C25   C29   A    
C52   C101  S    
C95   H28   S    
C32   O19   A    
C19   C22   A    
C4    H54   S    
C24   C25   A    
C87   O25   A    
C72   C74   T    
C100  H35   S    
C39   C40   A    
C79   C81   A    
C78   C79   A    
C92   H3    S    
C96   H25   S    
C63   C73   T    
C44   C62   S    
C58   C59   A    
C65   H13   S    
C41   H60   S    
C90   O6    A    
Cr2   O14   S    
C23   C93   A    
C98   H31   S    
C67   C69   A    
C5    H52   S    
C80   C92   A    
C43   C45   A    
Cr6   O10   S    
C83   C84   S    
C20   C23   S    
C101  H44   S    
C100  H36   S    
C9    C103  S    
C5    H51   S    
C89   O24   A    
C36   H2    S    
C3    H46   S    
C17   C18   A    
C56   C63   S    
C50   C51   A    
C64   C69   A    
C16   C49   A    
Cr5   O26   S    
C2    C15   A    
C49   C60   S    
Cr3   O15   S    
Cr1   O4    S    
C25   C35   A    
C48   H6    S    
C8    O14   A    
C84   C86   T    
C102  H41   S    
C45   C54   A    
C26   C30   A    
C55   C57   A    
C27   H20   S    
Cr3   O21   S    
C49   C92   A    
C4    C10   S    
C2    C10   A    
C11   H21   S    
Cr4   O24   S    
C52   C53   A    
C29   H59   S    
Cr5   O11   S    
Cr1   O1    S    
C45   C48   A    
C3    C103  S    
C7    C9    A    
Cr1   O18   S    
C99   H38   S    
C38   C71   S    
C28   C29   A    
C6    C22   S    
C31   C41   A    
C32   O18   A    
C66   H14   S    
C94   O5    A    
C2    C93   A    
C89   O3    A    
C56   O17   A    
C4    C5    S    
C76   C81   A    
C1    O13   A    
C103  H49   S    
C8    C68   S    
C96   H24   S    
Cr4   O5    S    
Cr1   O17   S    
C46   C50   A    
C101  H43   S    
C26   C28   A    
C99   C100  S    
C98   H30   S    
C50   H4    S    
C5    H53   S    
C74   C90   S    
C35   C40   A    
C87   O26   A    
C37   C39   A    
C52   C62   A    
C64   C65   A    
C7    C21   A    
C76   C77   A    
Cr6   O11   S    
C26   C40   A    
C57   C58   A    
C66   C70   A    
C15   C21   A    
C38   C80   A    
C16   C27   A    
C68   C71   T    
C82   C88   S    
C91   O8    A    
C6    O20   D    
C95   H27   S    
Cr3   O16   S    
Cr5   O8    S    
C24   H56   S    
C33   C97   S    
C94   O10   A    
C13   H34   S    
C97   H33   S    
C37   C95   S    
C18   H12   S    
C1    C42   S    
C30   H45   S    
C43   C62   A    
Cr5   O7    S    
C80   H1    S    
C3    H48   S    
C14   C15   A    
C102  H40   S    
C70   C72   S    
Cr2   O12   S    
C93   H22   S    
C44   O12   A    
Cr4   O25   S    
C81   C85   S    
C77   H17   S    
Cr6   O2    S    
C11   C12   A    
C55   H9    S    
C14   C17   A    
