data_mof_unit_49003.cif
_audit_creation_date              2012-12-10T17:10:24-0500
_audit_creation_method            fapswitch 2.2
_symmetry_space_group_name_H-M    P1
_symmetry_Int_Tables_number       1
_space_group_crystal_system       triclinic
_cell_length_a                    10.826847
_cell_length_b                    12.958878
_cell_length_c                    11.667464
_cell_angle_alpha                 100.419709
_cell_angle_beta                  91.990054
_cell_angle_gamma                 88.329073
_cell_volume                      1608.58737198

loop_
_atom_site_label
_atom_site_type_symbol
_atom_type_description
_atom_site_fract_x
_atom_site_fract_y
_atom_site_fract_z
_atom_type_partial_charge
C1    C     C_R   0.500373 0.298536 0.477466 0.963117
C2    C     C_R   0.494866 0.701021 0.522518 0.937261
C3    C     C_R   0.480141 0.814994 0.535186 -0.243750
C4    C     C_R   0.501510 0.183388 0.460436 -0.277217
C5    C     C_R   0.577142 0.012275 0.363646 0.307671
C6    C     C_R   0.344001 0.968825 0.572145 0.272581
C7    C     C_R   0.578536 0.121746 0.376477 0.333292
C8    C     C_R   0.379827 0.869757 0.595904 0.263384
C9    C     C_R   0.418125 0.133956 0.522599 0.216282
C10   C     C_R   0.551415 0.864098 0.463753 0.234945
C11   C     C_R   0.424998 0.023665 0.513712 -0.097951
C12   C     C_R   0.519376 0.966300 0.447103 -0.107668
C13   C     C_R   0.431900 0.376193 0.021083 -0.205110
C14   C     C_R   0.569742 0.623468 0.979013 -0.202311
C15   C     C_R   0.430693 0.391771 0.143292 0.179202
C16   C     C_R   0.570810 0.607682 0.856685 0.188207
C17   C     C_R   0.522835 0.557347 0.157503 0.091997
C18   C     C_R   0.477719 0.442805 0.842890 0.087262
C19   C     C_R   0.523129 0.546104 0.034618 0.056751
C20   C     C_R   0.477749 0.454001 0.965703 0.060095
C21   C     C_R   0.261720 0.511837 0.503927 0.861443
C22   C     C_R   0.738282 0.488623 0.496058 0.895933
C23   C     C_R   0.118835 0.508637 0.719470 -0.114208
C24   C     C_R   0.880721 0.487715 0.279254 -0.145888
C25   C     C_R   0.070080 0.459036 0.803198 0.289078
C26   C     C_R   0.929668 0.535591 0.194300 0.283993
C27   C     C_R   0.965696 0.398804 0.776217 -0.103087
C28   C     C_R   0.034242 0.595663 0.220171 -0.098489
C29   C     C_R   0.902473 0.396428 0.669618 0.249887
C30   C     C_R   0.097367 0.599649 0.327087 0.254249
C31   C     C_R   0.944860 0.455685 0.587763 -0.010215
C32   C     C_R   0.054918 0.541966 0.410540 0.000805
C33   C     C_R   0.064200 0.497851 0.606183 -0.005223
C34   C     C_R   0.935501 0.499846 0.392554 -0.012739
C35   C     C_R   0.874513 0.471859 0.487770 -0.070119
C36   C     C_R   0.125178 0.526821 0.511301 -0.062850
Cu1   Cu    Cu3+1 0.509250 0.507730 0.615930 1.049832
Cu2   Cu    Cu3+1 0.490750 0.492270 0.384070 1.042359
H1    H     H_    0.066031 0.640240 0.157318 0.222875
H2    H     H_    0.934113 0.352938 0.837921 0.218517
H3    H     H_    0.395906 0.304390 0.970368 0.181754
H4    H     H_    0.606536 0.694993 0.029585 0.198825
H5    H     H_    0.197444 0.557556 0.745998 0.226340
H6    H     H_    0.801780 0.438991 0.253677 0.225379
H7    H     H_    0.439471 0.373650 0.789962 0.179492
H8    H     H_    0.561751 0.626452 0.210891 0.173263
H9    H     H_    0.608328 0.667496 0.815218 0.162861
H10   H     H_    0.394232 0.331446 0.184654 0.154490
N1    N     N_R   0.523180 0.519350 0.790130 -0.204810
N2    N     N_R   0.476820 0.480650 0.209870 -0.205230
O1    O     O_R   0.506570 0.354460 0.582000 -0.553718
O2    O     O_R   0.493430 0.645540 0.418000 -0.566012
O3    O     O_R   0.490940 0.341410 0.386200 -0.566468
O4    O     O_R   0.509060 0.658590 0.613800 -0.556672
O5    O     O_R   0.327470 0.506520 0.597900 -0.580353
O6    O     O_R   0.672530 0.493480 0.402100 -0.575886
O7    O     O_R   0.311840 0.493460 0.402100 -0.579457
O8    O     O_R   0.688160 0.506540 0.597900 -0.577980
Br1   Br    Br    0.152976 0.466666 0.950975 -0.510876
Br2   Br    Br    0.846823 0.525707 0.046204 -0.509895
Br3   Br    Br    0.780144 0.290682 0.632320 -0.400125
Br4   Br    Br    0.219853 0.705312 0.361342 -0.417893
Br5   Br    Br    0.710296 0.799382 0.416665 -0.388293
Br6   Br    Br    0.307706 0.220172 0.630239 -0.461511
S1    S     S_3+6 0.298541 0.818793 0.703160 0.072911
O9    O     O_2   0.209053 0.738623 0.643930 -0.250428
O10   O     O_2   0.385961 0.768821 0.780767 -0.297606
O11   O     O_3   0.219152 0.914672 0.788831 -0.420458
H11   H     H_    0.282935 0.962732 0.829027 0.359795
S2    S     S_3+6 0.682119 0.177492 0.290133 0.064910
O12   O     O_2   0.613938 0.198924 0.182212 -0.285143
O13   O     O_2   0.733140 0.277672 0.356594 -0.319379
O14   O     O_3   0.802475 0.094997 0.251352 -0.427392
H12   H     H_    0.851353 0.130139 0.199991 0.389103
Br7   Br    Br    0.614638 0.927157 0.213907 -0.320517
Br8   Br    Br    0.168414 0.002341 0.570759 -0.217214

loop_
_geom_bond_atom_site_label_1
_geom_bond_atom_site_label_2
_ccdc_geom_bond_type
C27   C29   A    
C9    Br6   S    
O14   H12   S    
C19   C20   A    
C7    S2    S    
C13   H3    S    
C23   H5    S    
C21   C36   S    
C22   C35   S    
C32   C36   A    
C24   C26   A    
C30   Br4   S    
Cu1   O1    S    
Cu2   O2    S    
C33   C36   A    
Cu1   N1    S    
C34   C35   A    
C15   N2    A    
C1    O3    A    
C10   Br5   S    
O11   H11   S    
S1    O10   D    
C31   C33   A    
S2    O12   D    
Cu1   O8    S    
C14   H4    S    
C8    S1    S    
C15   H10   S    
C4    C7    A    
C10   C12   A    
C16   H9    S    
C29   Br3   S    
C17   H8    S    
C5    C12   A    
C3    C8    A    
C2    O4    A    
C6    C11   A    
C21   O5    A    
C22   O6    A    
C28   H1    S    
C23   C33   A    
C24   C34   A    
C32   C34   A    
C5    Br7   S    
C21   O7    A    
Cu1   Cu2   S    
Cu2   O7    S    
C9    C11   A    
C27   H2    S    
S1    O11   S    
S2    O14   S    
C16   N1    A    
C1    O1    A    
C2    O2    A    
Cu1   O4    S    
C13   C15   A    
C24   H6    S    
C14   C16   A    
C18   H7    S    
C5    C7    A    
C13   C20   A    
C14   C19   A    
C17   N2    A    
C22   O8    A    
C6    C8    A    
C11   C12   A    
C6    Br8   S    
Cu2   N2    S    
C25   C27   A    
C26   C28   A    
C1    C4    S    
C28   C30   A    
C2    C3    S    
C29   C31   A    
C3    C10   A    
C30   C32   A    
Cu2   O3    S    
C31   C35   A    
C17   C19   A    
C18   C20   A    
C23   C25   A    
Cu1   O5    S    
Cu2   O6    S    
S1    O9    D    
S2    O13   D    
C25   Br1   S    
C4    C9    A    
C26   Br2   S    
C18   N1    A    
