data_mof_unit_51099.cif
_audit_creation_date              2012-12-10T21:26:03-0500
_audit_creation_method            fapswitch 2.2
_symmetry_space_group_name_H-M    P1
_symmetry_Int_Tables_number       1
_space_group_crystal_system       triclinic
_cell_length_a                    8.571843
_cell_length_b                    16.126713
_cell_length_c                    16.628919
_cell_angle_alpha                 87.707367
_cell_angle_beta                  90.836674
_cell_angle_gamma                 101.335055
_cell_volume                      2252.01478054

loop_
_atom_site_label
_atom_site_type_symbol
_atom_type_description
_atom_site_fract_x
_atom_site_fract_y
_atom_site_fract_z
_atom_type_partial_charge
C1    C     C_R   0.503971 0.489231 0.653438 0.906972
C2    C     C_R   0.496277 0.510798 0.346561 0.908840
C3    C     C_R   0.409395 0.752690 0.466981 -0.055974
C4    C     C_R   0.590652 0.247321 0.532993 -0.056422
C5    C     C_R   0.403118 0.839133 0.471465 -0.088719
C6    C     C_R   0.596930 0.160876 0.528518 -0.088855
C7    C     C_R   0.517485 0.891766 0.519629 0.267370
C8    C     C_R   0.482501 0.108231 0.480394 0.267213
C9    C     C_R   0.628584 0.853807 0.562874 -0.306476
C10   C     C_R   0.371347 0.146177 0.437180 -0.305779
C11   C     C_R   0.627958 0.767147 0.557150 0.010497
C12   C     C_R   0.371981 0.232839 0.442891 0.010190
C13   C     C_R   0.801023 0.522040 0.500988 0.976342
C14   C     C_R   0.198977 0.477960 0.499015 0.976700
C15   C     C_2   0.967170 0.533977 0.501427 -0.372506
C16   C     C_2   0.032830 0.466023 0.498581 -0.373338
C17   C     C_R   0.527497 0.484280 0.739991 -0.105772
C18   C     C_R   0.474280 0.515973 0.259929 -0.106589
C19   C     C_R   0.601571 0.557092 0.779241 -0.276238
C20   C     C_R   0.400189 0.443433 0.220286 -0.284466
C21   C     C_R   0.622925 0.554701 0.862193 0.457558
C22   C     C_R   0.380575 0.446151 0.137222 0.452738
C23   C     C_R   0.563755 0.478742 0.906137 0.220900
C24   C     C_R   0.441361 0.522086 0.093631 0.228553
C25   C     C_R   0.500140 0.404792 0.866474 -0.185322
C26   C     C_R   0.505340 0.595751 0.133628 -0.175068
C27   C     C_R   0.482191 0.407341 0.783383 -0.235197
C28   C     C_R   0.521559 0.592922 0.216793 -0.231124
H1    H     H_    0.034919 0.598410 0.504030 0.180201
H2    H     H_    0.965081 0.401589 0.495979 0.180055
H3    H     H_    0.357865 0.384604 0.254012 0.199945
H4    H     H_    0.642455 0.615931 0.745283 0.199352
H5    H     H_    0.456519 0.346341 0.900446 0.205051
H6    H     H_    0.550346 0.654188 0.099931 0.202275
H7    H     H_    0.427817 0.350214 0.753525 0.174513
H8    H     H_    0.576125 0.649830 0.246943 0.175418
H9    H     H_    0.677783 0.288208 0.568826 0.142937
H10   H     H_    0.322303 0.711814 0.431119 0.143389
H11   H     H_    0.715981 0.891548 0.601097 0.171536
H12   H     H_    0.283906 0.108425 0.398988 0.171858
H13   H     H_    0.713592 0.738704 0.591266 0.142418
H14   H     H_    0.286301 0.261271 0.408800 0.142526
N1    N     N_2   0.549465 0.477706 0.989912 -0.089889
N2    N     N_2   0.456127 0.523345 0.009883 -0.070420
N3    N     N_R   0.519180 0.718290 0.509780 -0.095033
N4    N     N_R   0.480820 0.281710 0.490220 -0.095007
N5    N     N_2   0.522412 0.980369 0.529824 -0.170171
N6    N     N_2   0.477567 0.019627 0.470204 -0.170098
O1    O     O_R   0.493140 0.422050 0.612640 -0.624170
O2    O     O_R   0.506860 0.577950 0.387360 -0.624073
O3    O     O_R   0.505450 0.562230 0.618920 -0.614297
O4    O     O_R   0.494550 0.437770 0.381080 -0.614358
O5    O     O_R   0.723530 0.446300 0.497600 -0.617784
O6    O     O_R   0.276470 0.553700 0.502400 -0.617557
O7    O     O_R   0.735850 0.586490 0.503880 -0.627498
O8    O     O_R   0.264150 0.413510 0.496120 -0.627568
Zn1   Zn    Zn3+2 0.491780 0.406400 0.495810 0.952025
Zn2   Zn    Zn3+2 0.508220 0.593600 0.504190 0.952585
S1    S     S_3+6 0.283914 0.353817 0.089376 0.028536
O9    O     O_2   0.406136 0.303263 0.067974 -0.304841
O10   O     O_2   0.164286 0.301193 0.145324 -0.288145
O11   O     O_3   0.190597 0.380046 0.005228 -0.538468
H15   H     H_    0.155185 0.326106 0.977776 0.379197
S2    S     S_3+6 0.718866 0.647653 0.909373 0.028664
O12   O     O_2   0.805798 0.625231 0.983786 -0.286023
O13   O     O_2   0.835137 0.701140 0.852364 -0.293565
O14   O     O_3   0.580743 0.702749 0.934656 -0.550954
H16   H     H_    0.640657 0.752415 0.962528 0.378646
C29   C     C_R   0.731031 0.130987 0.569304 0.134582
C30   C     C_R   0.743439 0.130131 0.653603 -0.153875
C31   C     C_R   0.874198 0.105594 0.692097 -0.116383
C32   C     C_R   0.994286 0.083054 0.646686 -0.106379
C33   C     C_R   0.983551 0.084770 0.562745 -0.170710
C34   C     C_R   0.851901 0.108089 0.523992 -0.131876
H17   H     H_    0.652011 0.148468 0.689330 0.133173
H18   H     H_    0.883045 0.104691 0.757106 0.147245
H19   H     H_    0.096091 0.064734 0.676494 0.140046
H20   H     H_    0.077761 0.068437 0.527777 0.148768
H21   H     H_    0.845291 0.109592 0.458866 0.138024
C35   C     C_R   0.269076 0.869035 0.430643 0.133765
C36   C     C_R   0.147923 0.891695 0.475920 -0.132024
C37   C     C_R   0.016350 0.915044 0.437117 -0.171178
C38   C     C_R   0.005983 0.917034 0.353165 -0.106668
C39   C     C_R   0.126362 0.894735 0.307791 -0.112008
C40   C     C_R   0.257043 0.870163 0.346331 -0.153026
H22   H     H_    0.154260 0.889987 0.541052 0.138132
H23   H     H_    0.921928 0.931201 0.472055 0.148924
H24   H     H_    0.904242 0.935382 0.323319 0.140332
H25   H     H_    0.117804 0.895853 0.242772 0.150256
H26   H     H_    0.348705 0.852015 0.310631 0.133643

loop_
_geom_bond_atom_site_label_1
_geom_bond_atom_site_label_2
_ccdc_geom_bond_type
C6    C29   S    
C14   O8    A    
C2    C18   S    
C33   C34   A    
C36   C37   A    
C23   N1    S    
C4    N4    A    
O11   H15   S    
C22   C24   A    
C19   C21   A    
C24   C26   A    
C31   H18   S    
C16   H2    S    
C15   C16   D    
C9    H11   S    
O1    Zn1   S    
O8    Zn1   S    
C10   H12   S    
C21   S2    S    
C12   H14   S    
C2    O2    A    
C32   H19   S    
C26   H6    S    
C38   C39   A    
C3    H10   S    
C33   H20   S    
C30   C31   A    
C36   H22   S    
C38   H24   S    
S1    O9    D    
C19   H4    S    
C10   C12   A    
C15   H1    S    
C13   O5    A    
N3    Zn2   S    
S1    O10   D    
O14   H16   S    
C17   C27   A    
S2    O14   S    
C18   C28   A    
C39   C40   A    
C4    C6    A    
C22   S1    S    
C5    C7    A    
O5    Zn1   S    
C35   C36   A    
C6    C8    A    
C27   H7    S    
C3    N3    A    
C7    N5    S    
N1    N2    D    
C8    N6    S    
C35   C40   A    
C9    C11   A    
N5    N6    D    
O2    Zn2   S    
C29   C34   A    
O3    Zn2   S    
C5    C35   S    
C1    O3    A    
C2    O4    A    
C12   N4    A    
C14   O6    A    
C20   C22   A    
C34   H21   S    
C13   C15   S    
N4    Zn1   S    
C24   N2    S    
C14   C16   S    
C11   N3    A    
C39   H25   S    
O6    Zn2   S    
C7    C9    A    
S1    O11   S    
C1    C17   S    
C32   C33   A    
C3    C5    A    
C40   H26   S    
C25   C27   A    
C26   C28   A    
S2    O12   D    
C21   C23   A    
C31   C32   A    
C17   C19   A    
C11   H13   S    
C18   C20   A    
C23   C25   A    
C29   C30   A    
O4    Zn1   S    
C4    H9    S    
C28   H8    S    
C8    C10   A    
C37   C38   A    
O7    Zn2   S    
C25   H5    S    
C30   H17   S    
C1    O1    A    
C37   H23   S    
S2    O13   D    
C13   O7    A    
C20   H3    S    
