data_mof_unit_14495.cif
_audit_creation_date              2012-12-11T14:29:41-0500
_audit_creation_method            fapswitch 2.2
_symmetry_space_group_name_H-M    P1
_symmetry_Int_Tables_number       1
_space_group_crystal_system       triclinic
_cell_length_a                    6.934555
_cell_length_b                    14.957617
_cell_length_c                    16.128823
_cell_angle_alpha                 90.661111
_cell_angle_beta                  89.391921
_cell_angle_gamma                 90.122214
_cell_volume                      1672.74381734

loop_
_atom_site_label
_atom_site_type_symbol
_atom_type_description
_atom_site_fract_x
_atom_site_fract_y
_atom_site_fract_z
_atom_type_partial_charge
O1    O     O_R   0.494400 0.416610 0.413880 -0.531896
O2    O     O_R   0.823920 0.406790 0.585520 -0.552173
O3    O     O_R   0.994250 0.583390 0.586120 -0.542727
C1    C     C_R   0.655428 0.385388 0.614198 0.742870
O4    O     O_R   0.824110 0.405730 0.414490 -0.536589
O5    O     O_R   0.994440 0.582310 0.413870 -0.543815
C2    C     C_R   0.656074 0.384733 0.385564 0.710805
O6    O     O_R   0.494210 0.417690 0.586130 -0.541446
O7    O     O_3   0.660810 0.557940 0.500000 -0.373522
V1    V     V_3+5 0.935650 0.489250 0.500000 1.434323
O8    O     O_R   0.324160 0.593210 0.414480 -0.540569
C3    C     C_R   0.156042 0.615892 0.387519 0.708061
O9    O     O_R   0.323970 0.594270 0.585510 -0.539960
C4    C     C_R   0.154497 0.615064 0.614706 0.681477
V2    V     V_3+5 0.435660 0.510750 0.500000 1.449962
O10   O     O_3   0.160630 0.442060 0.500000 -0.366951
C5    C     C_R   0.261018 0.572987 0.782642 -0.192860
C6    C     C_R   0.302308 0.548551 0.863626 -0.138206
C7    C     C_R   0.283829 0.610476 0.928645 0.194729
C8    C     C_R   0.229039 0.698249 0.911376 -0.175586
C9    C     C_R   0.184991 0.724825 0.829679 0.038605
C10   C     C_R   0.198690 0.660491 0.764240 0.072654
C11   C     C_R   0.122079 0.813177 0.813516 -0.168867
C12   C     C_R   0.062681 0.836081 0.731305 0.022600
C13   C     C_R   0.065379 0.769062 0.667623 0.035088
C14   C     C_R   0.141999 0.682974 0.682951 -0.149375
C15   C     C_R   0.000445 0.923821 0.709689 -0.115897
C16   C     C_R   0.911113 0.939412 0.632943 -0.045025
C17   C     C_R   0.907697 0.871722 0.571898 0.123342
C18   C     C_R   0.992251 0.789404 0.588572 -0.174422
H1    H     H_    0.273801 0.521660 0.735083 0.109219
H2    H     H_    0.346123 0.480525 0.875848 0.118498
H3    H     H_    0.215817 0.744603 0.963109 0.086994
H4    H     H_    0.996112 0.740595 0.538663 0.117830
C19   C     C_2   0.009769 0.691005 0.269243 -0.214481
C20   C     C_2   0.148802 0.689679 0.327465 -0.194496
H5    H     H_    0.906348 0.636243 0.268307 0.140075
C21   C     C_2   0.973592 0.764248 0.208993 0.158468
C22   C     C_2   0.122348 0.807298 0.170470 -0.318034
H6    H     H_    0.268257 0.785799 0.182972 0.130070
C23   C     C_2   0.781478 0.217929 0.789574 -0.106607
C24   C     C_2   0.620027 0.173048 0.811239 -0.338487
H7    H     H_    0.906357 0.211932 0.828846 0.160743
H8    H     H_    0.493656 0.177671 0.773175 0.151344
C25   C     C_2   0.801173 0.273732 0.712931 0.182558
C26   C     C_2   0.647797 0.321945 0.685060 -0.366486
H9    H     H_    0.511502 0.318561 0.718416 0.119588
C27   C     C_2   0.772123 0.201660 0.219345 -0.174169
C28   C     C_2   0.609041 0.171341 0.184523 -0.293212
H10   H     H_    0.910677 0.179363 0.194785 0.149640
H11   H     H_    0.470236 0.187340 0.212581 0.152521
C29   C     C_2   0.772691 0.257627 0.296284 -0.058027
C30   C     C_2   0.647735 0.326638 0.310713 -0.218769
O11   O     O_R   0.770210 0.079270 0.910680 -0.525598
O12   O     O_R   0.440150 0.091160 0.082270 -0.545640
O13   O     O_R   0.269970 0.914530 0.082860 -0.546727
C31   C     C_R   0.607701 0.110816 0.112031 0.742137
O14   O     O_R   0.440480 0.090100 0.911240 -0.531059
O15   O     O_R   0.270310 0.913460 0.910610 -0.533530
C32   C     C_R   0.610367 0.111390 0.882733 0.767847
O16   O     O_R   0.769870 0.080340 0.082930 -0.543002
O17   O     O_3   0.603660 0.938980 0.996790 -0.377904
V3    V     V_3+5 0.328750 0.007610 0.996740 1.455753
O18   O     O_R   0.940600 0.902510 0.911180 -0.538433
C33   C     C_R   0.110333 0.878885 0.884090 0.719344
O19   O     O_R   0.940270 0.903570 0.082200 -0.541508
C34   C     C_R   0.108364 0.880114 0.108840 0.717717
V4    V     V_3+5 0.828770 0.986010 0.996670 1.444477
O20   O     O_3   0.103730 0.054750 0.996710 -0.360357
C35   C     C_3   0.816833 0.885624 0.487787 -0.354172
C36   C     C_3   0.944994 0.942744 0.431831 -0.694105
H12   H     H_    0.958133 0.011835 0.456927 0.242497
H13   H     H_    0.090927 0.912925 0.426264 0.241225
H14   H     H_    0.881201 0.945995 0.369064 0.218378
H15   H     H_    0.792176 0.820371 0.455796 0.189492
H16   H     H_    0.672854 0.917318 0.495430 0.201083
C37   C     C_1   0.283809 0.762659 0.338985 0.289931
N1    N     N_1   0.391899 0.820838 0.348632 -0.401131
C38   C     C_3   0.763357 0.780693 0.189229 -0.291212
C39   C     C_3   0.705698 0.734277 0.108187 -0.720075
H17   H     H_    0.808010 0.749469 0.056891 0.231779
H18   H     H_    0.702350 0.660689 0.116662 0.201505
H19   H     H_    0.560057 0.757065 0.090194 0.204824
H20   H     H_    0.670269 0.753198 0.239356 0.179132
H21   H     H_    0.730164 0.853183 0.188620 0.189011
C40   C     C_3   0.997775 0.280907 0.669071 -0.283351
C41   C     C_3   0.150275 0.213724 0.691919 -0.768626
H22   H     H_    0.185527 0.220072 0.758492 0.224932
H23   H     H_    0.101263 0.145999 0.674342 0.258054
H24   H     H_    0.282819 0.226746 0.654861 0.222006
H25   H     H_    0.977400 0.269786 0.601435 0.221557
H26   H     H_    0.058903 0.348639 0.680743 0.173865
C42   C     C_1   0.918638 0.234926 0.356063 0.335371
N2    N     N_1   0.035255 0.216646 0.403774 -0.359140
C43   C     C_1   0.509860 0.353678 0.248864 0.320353
N3    N     N_1   0.399775 0.375561 0.199662 -0.384310
C44   C     C_3   0.318487 0.582476 0.016785 -0.383082
C45   C     C_3   0.153805 0.523987 0.048747 -0.705803
H27   H     H_    0.014507 0.560186 0.044561 0.219293
H28   H     H_    0.145376 0.460707 0.012240 0.224265
H29   H     H_    0.178676 0.507538 0.114708 0.239889
H30   H     H_    0.457084 0.545589 0.020297 0.185830
H31   H     H_    0.329397 0.641879 0.058435 0.176315
C46   C     C_1   0.045112 0.999970 0.761739 0.275483
N4    N     N_1   0.085420 0.059188 0.804832 -0.340966
C47   C     C_1   0.819205 0.024459 0.617220 0.290169
N5    N     N_1   0.744543 0.091903 0.604237 -0.353194

loop_
_geom_bond_atom_site_label_1
_geom_bond_atom_site_label_2
_ccdc_geom_bond_type
O19   V4    S    
C41   H22   S    
C42   N2    T    
C30   C43   S    
C43   N3    T    
C23   C24   D    
C7    C8    A    
C12   C15   A    
C1    O6    A    
C44   C45   S    
C7    C44   S    
O11   C32   A    
C37   N1    T    
C17   C18   A    
O18   V4    S    
C16   C17   A    
C19   H5    S    
C40   H25   S    
O5    C3    A    
C38   H20   S    
O11   V4    S    
C47   N5    T    
O14   C32   A    
V2    O10   S    
C15   C46   S    
C13   C18   A    
C28   C31   S    
C6    C7    A    
O8    V2    S    
V3    O20   S    
C16   C47   S    
V4    O20   S    
C28   H11   S    
O12   V3    S    
C11   C12   A    
C35   C36   S    
O1    V2    S    
C3    C20   S    
O7    V1    S    
C44   H30   S    
C27   H10   S    
O19   C34   A    
O9    C4    A    
C23   H7    S    
C24   H8    S    
C39   H19   S    
O4    V1    S    
C46   N4    T    
C9    C11   A    
C18   H4    S    
C19   C21   S    
C12   C13   A    
C39   H18   S    
C24   C32   S    
C22   H6    S    
O4    C2    A    
C40   C41   S    
C1    C26   S    
C13   C14   A    
C25   C26   D    
C19   C20   D    
O2    C1    A    
O17   V3    S    
C5    C6    A    
O13   V3    S    
C29   C42   S    
C4    C14   S    
C44   H31   S    
O3    C4    A    
C8    H3    S    
C27   C28   D    
O6    V2    S    
C45   H28   S    
O12   C31   A    
C35   H16   S    
C5    H1    S    
C6    H2    S    
C2    C30   S    
C45   H29   S    
C38   H21   S    
C29   C30   D    
C36   H13   S    
C17   C35   S    
O14   V3    S    
C26   H9    S    
O1    C2    A    
C22   C34   S    
C39   H17   S    
O5    V1    S    
C36   H14   S    
O8    C3    A    
C31   O16   A    
O13   C34   A    
O15   V3    S    
C5    C10   A    
O17   V4    S    
C20   C37   S    
O18   C33   A    
C11   C33   S    
O9    V2    S    
C25   C40   S    
O7    V2    S    
C36   H12   S    
O3    V1    S    
C40   H26   S    
O15   C33   A    
O16   V4    S    
C21   C22   D    
C10   C14   A    
C38   C39   S    
C27   C29   S    
C8    C9    A    
C45   H27   S    
C21   C38   S    
C41   H24   S    
C35   H15   S    
C41   H23   S    
C23   C25   S    
V1    O10   S    
C9    C10   A    
C15   C16   A    
O2    V1    S    
