data_mof_unit_66445.cif
_audit_creation_date              2012-12-10T17:09:35-0500
_audit_creation_method            fapswitch 2.2
_symmetry_space_group_name_H-M    P1
_symmetry_Int_Tables_number       1
_space_group_crystal_system       triclinic
_cell_length_a                    21.703246
_cell_length_b                    21.732358
_cell_length_c                    21.952911
_cell_angle_alpha                 119.281339
_cell_angle_beta                  117.593788
_cell_angle_gamma                 92.371794
_cell_volume                      7507.91701105

loop_
_atom_site_label
_atom_site_type_symbol
_atom_type_description
_atom_site_fract_x
_atom_site_fract_y
_atom_site_fract_z
_atom_type_partial_charge
C1    C     C_R   0.503404 0.122093 0.503263 0.889542
C2    C     C_R   0.499402 0.880224 0.500726 0.945803
C3    C     C_1   0.873723 0.372643 0.249255 0.001425
C4    C     C_1   0.131436 0.627732 0.750517 -0.019873
C5    C     C_3   0.704317 0.205727 0.916999 -0.000492
C6    C     C_3   0.299845 0.796244 0.083086 0.001378
C7    C     C_3   0.711880 0.295884 0.053003 -0.029593
C8    C     C_3   0.246316 0.663463 0.949583 -0.002785
C9    C     C_3   0.789820 0.285458 0.082582 -0.025300
C10   C     C_3   0.218641 0.713851 0.917378 -0.045676
C11   C     C_3   0.777344 0.198111 0.045751 -0.290751
C12   C     C_3   0.288088 0.779289 0.951358 -0.320473
C13   C     C_3   0.736011 0.152518 0.944881 0.034879
C14   C     C_3   0.342514 0.823652 0.052996 0.073147
C15   C     C_1   0.836048 0.333601 0.174300 0.122422
C16   C     C_1   0.170977 0.666598 0.825454 0.132268
C17   C     C_1   0.659529 0.164678 0.825491 0.063653
C18   C     C_1   0.341473 0.840382 0.174667 0.060959
C19   C     C_1   0.623433 0.129449 0.750670 0.002240
C20   C     C_1   0.376499 0.876267 0.249478 -0.071764
C21   C     C_R   0.544420 0.154907 0.405351 0.239623
C22   C     C_R   0.636715 0.871281 0.608730 0.248045
C23   C     C_R   0.580506 0.084684 0.661834 0.956733
C24   C     C_R   0.419472 0.919176 0.338089 0.909407
C25   C     C_R   0.518385 0.139279 0.325417 -0.102771
C26   C     C_R   0.702158 0.855048 0.636975 -0.062291
C27   C     C_R   0.464986 0.168192 0.293916 -0.231602
C28   C     C_R   0.700888 0.798244 0.649588 -0.283224
C29   C     C_R   0.444016 0.219058 0.344274 -0.020034
C30   C     C_R   0.634240 0.757707 0.628376 -0.101948
C31   C     C_R   0.478903 0.242309 0.428822 -0.035516
C32   C     C_R   0.566463 0.752882 0.565329 -0.005123
C33   C     C_R   0.513864 0.196993 0.450130 -0.014898
C34   C     C_R   0.567426 0.813449 0.558412 0.020181
C35   C     C_R   0.512256 0.193427 0.512021 -0.161521
C36   C     C_R   0.499611 0.816018 0.505082 -0.194649
C37   C     C_R   0.500518 0.251276 0.569211 -0.100989
C38   C     C_R   0.431944 0.756395 0.454738 -0.116446
C39   C     C_R   0.490122 0.311830 0.563166 0.222801
C40   C     C_R   0.432039 0.693367 0.456836 0.210346
C41   C     C_R   0.482565 0.308928 0.494309 -0.146957
C42   C     C_R   0.499332 0.690447 0.508885 -0.149336
C43   C     C_R   0.747232 0.439326 0.433153 -0.056714
C44   C     C_R   0.254830 0.551948 0.573379 -0.065463
C45   C     C_R   0.757307 0.636210 0.628066 -0.139764
C46   C     C_R   0.236831 0.368727 0.361162 -0.112522
C47   C     C_R   0.815616 0.496809 0.504446 -0.152450
C48   C     C_R   0.185108 0.504190 0.497044 -0.127795
C49   C     C_R   0.880771 0.499353 0.501634 0.947497
C50   C     C_R   0.119364 0.500824 0.498651 0.901788
C51   C     C_R   0.918451 0.418426 0.338080 0.959035
C52   C     C_R   0.083902 0.581634 0.661742 0.926984
C53   C     C_R   0.620243 0.504040 0.499478 0.869985
C54   C     C_R   0.379661 0.494649 0.500454 0.901853
C55   C     C_R   0.493004 0.378495 0.498592 0.909803
C56   C     C_R   0.499978 0.621196 0.501855 0.909427
C57   C     C_R   0.753558 0.566958 0.566693 0.068935
C58   C     C_R   0.244056 0.435685 0.428665 0.073378
C59   C     C_R   0.885926 0.602468 0.656402 0.226973
C60   C     C_R   0.113848 0.412103 0.341172 0.241159
C61   C     C_R   0.888746 0.669503 0.718236 -0.096468
C62   C     C_R   0.107959 0.347495 0.273795 -0.109457
C63   C     C_R   0.825177 0.688112 0.702459 -0.135805
C64   C     C_R   0.168405 0.323679 0.285030 -0.157596
C65   C     C_R   0.683670 0.443694 0.432984 -0.204800
C66   C     C_R   0.318225 0.545736 0.573506 -0.168769
C67   C     C_R   0.686265 0.506949 0.498442 -0.116312
C68   C     C_R   0.313336 0.489540 0.501495 -0.113779
C69   C     C_R   0.819541 0.555978 0.575505 0.030072
C70   C     C_R   0.179870 0.450533 0.422403 0.024287
C71   C     C_3   0.658514 0.240034 0.955198 -0.282475
C72   C     C_3   0.286296 0.710345 0.046861 -0.315665
C73   C     C_3   0.770287 0.271523 0.951961 -0.375438
C74   C     C_3   0.223224 0.807125 0.049213 -0.385867
C75   C     C_3   0.823966 0.313616 0.047613 0.171533
C76   C     C_3   0.171454 0.747842 0.953465 0.125075
H1    H     H_    0.827781 0.740123 0.750636 0.206824
H2    H     H_    0.163588 0.273178 0.233074 0.185658
H3    H     H_    0.621341 0.193071 0.943075 0.202944
H4    H     H_    0.340038 0.701536 0.070576 0.201425
H5    H     H_    0.686927 0.282450 0.081191 0.180279
H6    H     H_    0.287571 0.644557 0.935888 0.207751
H7    H     H_    0.438945 0.150253 0.229462 0.244563
H8    H     H_    0.752701 0.795999 0.689487 0.220551
H9    H     H_    0.708048 0.650204 0.618915 0.170403
H10   H     H_    0.283594 0.350603 0.367001 0.199453
H11   H     H_    0.631470 0.397812 0.380744 0.201408
H12   H     H_    0.371816 0.586221 0.629958 0.207294
H13   H     H_    0.939016 0.705013 0.780306 0.216902
H14   H     H_    0.057777 0.317758 0.211687 0.224875
H15   H     H_    0.799849 0.251577 0.920059 0.247366
H16   H     H_    0.230185 0.864586 0.064098 0.272340
H17   H     H_    0.750049 0.311848 0.937837 0.234376
H18   H     H_    0.196775 0.802704 0.080468 0.214106
H19   H     H_    0.832015 0.374329 0.076175 0.196437
H20   H     H_    0.133934 0.701878 0.942430 0.238708
O1    O     O_R   0.448260 0.091600 0.499990 -0.620294
O2    O     O_R   0.551740 0.908400 0.500010 -0.598106
O3    O     O_R   0.556960 0.465330 0.430620 -0.615147
O4    O     O_R   0.443040 0.534670 0.569380 -0.601958
O5    O     O_R   0.534700 0.443070 0.569370 -0.571240
O6    O     O_R   0.465300 0.556930 0.430630 -0.577240
O7    O     O_R   0.465330 0.373710 0.430660 -0.635775
O8    O     O_R   0.534670 0.626290 0.569340 -0.630312
O9    O     O_R   0.551730 0.091620 0.499980 -0.576863
O10   O     O_R   0.448270 0.908380 0.500020 -0.608692
O11   O     O_R   0.509690 0.061420 0.622860 -0.601786
O12   O     O_R   0.490310 0.938580 0.377140 -0.581459
O13   O     O_R   0.613170 0.061430 0.622850 -0.574134
O14   O     O_R   0.386830 0.938570 0.377150 -0.619456
O15   O     O_R   0.908550 0.551730 0.500000 -0.605846
O16   O     O_R   0.091450 0.448270 0.500000 -0.625939
O17   O     O_R   0.908530 0.448300 0.500020 -0.587614
O18   O     O_R   0.091470 0.551700 0.499980 -0.544059
O19   O     O_R   0.938770 0.490290 0.377130 -0.580278
O20   O     O_R   0.061230 0.509710 0.622870 -0.579792
O21   O     O_R   0.938740 0.386860 0.377150 -0.602062
O22   O     O_R   0.061260 0.613140 0.622850 -0.589409
O23   O     O_R   0.626330 0.534680 0.569330 -0.613085
O24   O     O_R   0.373670 0.465320 0.430670 -0.611181
Zn1   Zn    Zn3+2 0.430910 0.999990 0.500010 1.084245
Zn2   Zn    Zn3+2 0.569090 0.000010 0.499990 1.153202
Zn3   Zn    Zn3+2 0.000200 0.569060 0.499990 1.129552
Zn4   Zn    Zn3+2 0.999800 0.430940 0.500010 1.103855
Zn5   Zn    Zn3+2 0.546330 0.546310 0.592620 1.082407
Zn6   Zn    Zn3+2 0.453670 0.453690 0.407380 1.069243
Br1   Br    Br    0.803508 0.121518 0.906968 -0.338249
Br2   Br    Br    0.373968 0.934732 0.116463 -0.415022
C77   C     C_2   0.733398 0.174971 0.074747 0.845482
O25   O     O_2   0.666435 0.141597 0.028742 -0.590474
O26   O     O_R   0.770726 0.196407 0.157745 -0.781560
H21   H     H_    0.736658 0.180014 0.170741 0.378357
C78   C     C_2   0.330709 0.747752 0.909467 0.902990
O27   O     O_2   0.321708 0.680772 0.870420 -0.592886
O28   O     O_R   0.378194 0.796607 0.912662 -0.685542
H22   H     H_    0.402399 0.769997 0.882274 0.388394
C79   C     C_2   0.848448 0.181033 0.083641 1.095690
O29   O     O_2   0.844921 0.115514 0.054938 -0.525167
O30   O     O_R   0.915499 0.238027 0.155500 -0.777003
H23   H     H_    0.956384 0.217879 0.175188 0.349291
C80   C     C_2   0.256329 0.829056 0.921497 1.086134
O31   O     O_2   0.237395 0.810661 0.851255 -0.602609
O32   O     O_R   0.242947 0.891606 0.969326 -0.719456
H24   H     H_    0.221069 0.917546 0.940766 0.381078
C81   C     C_2   0.503880 0.250532 0.638035 0.991609
O33   O     O_2   0.554793 0.237619 0.680469 -0.649020
O34   O     O_R   0.448403 0.263327 0.653434 -0.725437
H25   H     H_    0.456915 0.261015 0.701638 0.362785
C82   C     C_2   0.361951 0.756882 0.394534 1.016608
O35   O     O_2   0.308043 0.751162 0.398841 -0.540875
O36   O     O_R   0.358399 0.764975 0.333707 -0.786967
H26   H     H_    0.308258 0.765223 0.296853 0.357013
Br3   Br    Br    0.640980 0.150450 0.466512 -0.343577
Br4   Br    Br    0.646241 0.967399 0.691308 -0.428551
C83   C     C_2   0.543460 0.090867 0.272045 1.047562
O37   O     O_2   0.568101 0.044378 0.281425 -0.543695
O38   O     O_R   0.536542 0.096731 0.208656 -0.744664
H27   H     H_    0.554363 0.060152 0.175654 0.380280
C84   C     C_2   0.773645 0.906295 0.669736 1.013105
O39   O     O_2   0.774422 0.955699 0.657881 -0.555919
O40   O     O_R   0.840215 0.897333 0.712776 -0.781877
H28   H     H_    0.884954 0.935442 0.731522 0.371532
C85   C     C_2   0.375392 0.232855 0.301765 0.979463
O41   O     O_2   0.335610 0.244644 0.328458 -0.649135
O42   O     O_R   0.355075 0.230347 0.229901 -0.780094
H29   H     H_    0.307059 0.240345 0.206658 0.348473
C86   C     C_2   0.639140 0.754636 0.696667 1.016562
O43   O     O_2   0.590644 0.763902 0.710628 -0.571133
O44   O     O_R   0.700506 0.744443 0.747381 -0.831373
H30   H     H_    0.697533 0.744100 0.791963 0.358179
Br5   Br    Br    0.481843 0.395910 0.645913 -0.374492
Br6   Br    Br    0.339276 0.611503 0.389225 -0.351414
C87   C     C_2   0.739524 0.373702 0.358194 0.951316
O45   O     O_2   0.697563 0.311208 0.323500 -0.577021
O46   O     O_R   0.777133 0.383353 0.324719 -0.820688
H31   H     H_    0.764567 0.334508 0.271784 0.350150
C88   C     C_2   0.264291 0.610174 0.653690 0.917689
O47   O     O_2   0.317679 0.626148 0.720102 -0.564888
O48   O     O_R   0.214736 0.649086 0.654367 -0.770329
H32   H     H_    0.228676 0.688303 0.713242 0.370574
Br7   Br    Br    0.959667 0.562527 0.696152 -0.440036
Br8   Br    Br    0.045177 0.460729 0.312436 -0.409174
Br9   Br    Br    0.719192 0.401715 0.098700 -0.397905
Br10  Br    Br    0.169119 0.566649 0.888131 -0.346802
C89   C     C_2   0.606212 0.271564 0.913170 1.040954
O49   O     O_2   0.540071 0.247489 0.883471 -0.572914
O50   O     O_R   0.632437 0.326629 0.906853 -0.751987
H33   H     H_    0.591552 0.341736 0.876586 0.371094
C90   C     C_2   0.249398 0.682102 0.077504 1.031254
O51   O     O_2   0.284124 0.662602 0.123239 -0.561257
O52   O     O_R   0.176636 0.677793 0.053964 -0.786029
H34   H     H_    0.159436 0.658146 0.078940 0.370890
Br11  Br    Br    0.923546 0.313160 0.077044 -0.384646
Br12  Br    Br    0.100022 0.784510 0.897967 -0.461618
C91   C     C_2   0.677591 0.076273 0.897449 1.044762
O53   O     O_2   0.611800 0.062372 0.849675 -0.591379
O54   O     O_R   0.699953 0.021517 0.909477 -0.694697
H35   H     H_    0.657000 0.973345 0.874953 0.375885
C92   C     C_2   0.419789 0.815567 0.083465 0.948105
O55   O     O_2   0.443899 0.791570 0.126689 -0.614048
O56   O     O_R   0.467296 0.844302 0.069815 -0.701372
H36   H     H_    0.517383 0.838377 0.094957 0.373798

loop_
_geom_bond_atom_site_label_1
_geom_bond_atom_site_label_2
_ccdc_geom_bond_type
C66   C68   A    
O42   H29   S    
C5    C71   S    
C54   O24   A    
C28   H8    S    
C11   C13   S    
O44   H30   S    
C29   C85   S    
C44   C66   A    
C85   O41   D    
C73   H17   S    
C71   H3    S    
C81   O33   D    
C75   H19   S    
O28   H22   S    
C39   C41   A    
C87   O45   D    
C53   O3    A    
C6    C72   S    
C79   O30   S    
C45   C57   A    
O38   H27   S    
C74   C76   S    
C4    C52   S    
C8    H6    S    
C85   O42   S    
O21   Zn4   S    
C71   C89   S    
C30   C86   S    
O16   Zn4   S    
C82   O36   S    
O14   Zn1   S    
C7    C71   S    
O24   Zn6   S    
O13   Zn2   S    
C89   O50   S    
C83   O38   S    
O32   H24   S    
C55   O7    A    
C14   Br2   S    
C12   C80   S    
C18   C20   T    
C60   C62   A    
O56   H36   S    
C74   H16   S    
C61   C63   A    
O7    Zn6   S    
C74   H18   S    
C41   C55   S    
C39   Br5   S    
C42   C56   S    
C10   C76   S    
C47   C69   A    
O8    Zn5   S    
O34   H25   S    
C65   C67   A    
O1    Zn1   S    
O36   H26   S    
C84   O40   S    
C6    C74   S    
C24   O12   A    
O20   Zn4   S    
C38   C82   S    
C5    C13   S    
C49   O15   A    
C8    Br10  S    
C48   C50   S    
C92   O55   D    
C38   C40   A    
C46   C58   A    
O12   Zn2   S    
C73   C75   S    
C54   O4    A    
O54   H35   S    
C14   C92   S    
C57   C67   A    
C6    C18   S    
C11   C77   S    
C50   O16   A    
C25   C83   S    
C81   O34   S    
C61   H13   S    
C65   H11   S    
O3    Zn6   S    
C52   O20   A    
C60   Br8   S    
C22   C34   A    
C59   C61   A    
C8    C72   S    
O15   Zn3   S    
O52   H34   S    
C20   C24   S    
O19   Zn3   S    
C56   O8    A    
C47   C49   S    
C1    O1    A    
C86   O43   D    
C3    C51   S    
C58   C70   A    
C37   C81   S    
C88   O48   S    
C45   C63   A    
C51   O19   A    
O4    Zn5   S    
C86   O44   S    
C46   C64   A    
C50   O18   A    
C80   O32   S    
C32   C34   A    
C4    C16   T    
C19   C23   S    
C6    C14   S    
C11   C79   S    
O5    Zn5   S    
C84   O39   D    
C60   C70   A    
C43   C65   A    
C54   C68   S    
C23   O11   A    
C31   C33   A    
C49   O17   A    
C24   O14   A    
C26   C84   S    
C66   H12   S    
C9    C11   S    
C73   H15   S    
C87   O46   S    
C10   C12   S    
C59   C69   A    
O18   Zn3   S    
O23   Zn5   S    
C58   C68   A    
C7    H5    S    
C12   C14   S    
C5    C17   S    
C12   C78   S    
C80   O31   D    
C22   C26   A    
C78   O27   D    
C51   O21   A    
C91   O54   S    
O11   Zn1   S    
C17   C19   T    
O26   H21   S    
C75   Br11  S    
C72   C90   S    
C40   Br6   S    
C3    C15   T    
C1    C35   S    
C78   O28   S    
C77   O25   D    
C22   Br4   S    
C2    C36   S    
O2    Zn2   S    
C21   C25   A    
C32   C42   A    
C31   C41   A    
C35   C37   A    
C29   C31   A    
C64   H2    S    
C8    C10   S    
C48   C70   A    
C40   C42   A    
O6    Zn6   S    
C59   Br7   S    
C44   C88   S    
O30   H23   S    
C53   O23   A    
O48   H32   S    
C25   C27   A    
C79   O29   D    
C55   O5    A    
C26   C28   A    
C7    Br9   S    
C45   H9    S    
C57   C69   A    
C27   H7    S    
C62   C64   A    
C9    C15   S    
C56   O6    A    
O50   H33   S    
C72   H4    S    
O46   H31   S    
O40   H28   S    
C82   O35   D    
C76   H20   S    
C36   C38   A    
C30   C32   A    
C43   C87   S    
C89   O49   D    
O17   Zn4   S    
C27   C29   A    
C62   H14   S    
O10   Zn1   S    
C28   C30   A    
C33   C35   A    
C2    O10   A    
O9    Zn2   S    
C34   C36   A    
O22   Zn3   S    
C5    C73   S    
C90   O51   D    
C53   C67   S    
C91   O53   D    
C13   Br1   S    
C7    C9    S    
C76   Br12  S    
C21   C33   A    
C2    O2    A    
C37   C39   A    
C88   O47   D    
C13   C91   S    
C63   H1    S    
C92   O56   S    
C21   Br3   S    
C10   C16   S    
C9    C75   S    
C77   O26   S    
C83   O37   D    
C43   C47   A    
C44   C48   A    
C23   O13   A    
C1    O9    A    
C90   O52   S    
C46   H10   S    
C52   O22   A    
