data_mof_unit_7957.cif
_audit_creation_date              2012-12-11T15:50:43-0500
_audit_creation_method            fapswitch 2.2
_symmetry_space_group_name_H-M    P1
_symmetry_Int_Tables_number       1
_space_group_crystal_system       triclinic
_cell_length_a                    19.029475
_cell_length_b                    11.097603
_cell_length_c                    18.606147
_cell_angle_alpha                 89.425996
_cell_angle_beta                  91.357041
_cell_angle_gamma                 89.187546
_cell_volume                      3927.56745549

loop_
_atom_site_label
_atom_site_type_symbol
_atom_type_description
_atom_site_fract_x
_atom_site_fract_y
_atom_site_fract_z
_atom_type_partial_charge
C1    C     C_R   0.274488 0.036650 0.855674 0.537068
C2    C     C_R   0.708442 0.994586 0.139390 0.564508
C3    C     C_R   0.774488 0.536650 0.855674 0.537068
C4    C     C_R   0.208442 0.494586 0.139390 0.564508
C5    C     C_3   0.493671 0.718575 0.980258 -0.121671
C6    C     C_3   0.444645 0.746200 0.042989 -0.133450
C7    C     C_3   0.993671 0.218575 0.980258 -0.121671
C8    C     C_3   0.944645 0.246200 0.042989 -0.133450
C9    C     C_R   0.215440 0.503626 0.060810 0.005130
C10   C     C_R   0.763925 0.556811 0.931928 0.014725
C11   C     C_R   0.715440 0.003626 0.060810 0.005130
C12   C     C_R   0.263925 0.056811 0.931928 0.014725
C13   C     C_R   0.271748 0.451680 0.023861 0.027503
C14   C     C_R   0.713094 0.493589 0.969615 0.024046
C15   C     C_R   0.771748 0.951680 0.023861 0.027503
C16   C     C_R   0.213093 0.993589 0.969615 0.024046
C17   C     C_R   0.283853 0.482603 0.952562 0.013614
C18   C     C_R   0.707937 0.505028 0.043402 0.008414
C19   C     C_R   0.783853 0.982603 0.952562 0.013614
C20   C     C_R   0.207937 0.005028 0.043402 0.008414
C21   C     C_R   0.174408 0.592334 0.947224 -0.159179
C22   C     C_R   0.816199 0.612998 0.046709 -0.164778
C23   C     C_R   0.674408 0.092334 0.947224 -0.159179
C24   C     C_R   0.316199 0.112998 0.046709 -0.164778
C25   C     C_R   0.162866 0.563130 0.019221 -0.169498
C26   C     C_R   0.818625 0.609633 0.972390 -0.162986
C27   C     C_R   0.662866 0.063130 0.019221 -0.169498
C28   C     C_R   0.318625 0.109632 0.972390 -0.162986
C29   C     C_3   0.348540 0.445921 0.041597 -0.260470
C30   C     C_3   0.635410 0.490514 0.958606 -0.280779
C31   C     C_3   0.848540 0.945921 0.041597 -0.260470
C32   C     C_3   0.135410 0.990514 0.958606 -0.280779
C33   C     C_3   0.361418 0.480232 0.963711 -0.278609
C34   C     C_3   0.629627 0.501712 0.039804 -0.271424
C35   C     C_3   0.861418 0.980232 0.963711 -0.278609
C36   C     C_3   0.129627 0.001712 0.039804 -0.271424
C37   C     C_R   0.239347 0.564199 0.915340 0.017264
C38   C     C_R   0.755883 0.575486 0.082142 0.015610
C39   C     C_R   0.739348 0.064199 0.915340 0.017264
C40   C     C_R   0.255883 0.075486 0.082142 0.015610
C41   C     C_R   0.503819 0.837379 0.422981 -0.000709
C42   C     C_R   0.479938 0.828709 0.570357 0.037228
C43   C     C_R   0.003819 0.337379 0.422981 -0.000709
C44   C     C_R   0.979938 0.328709 0.570357 0.037228
C45   C     C_R   0.438708 0.816991 0.861989 0.559626
C46   C     C_R   0.528309 0.822802 0.145708 0.540264
C47   C     C_R   0.938708 0.316991 0.861989 0.559625
C48   C     C_R   0.028309 0.322802 0.145708 0.540264
C49   C     C_R   0.464168 0.749251 0.453578 -0.011893
C50   C     C_R   0.443821 0.752378 0.522809 0.001971
C51   C     C_R   0.964168 0.249251 0.453578 -0.011893
C52   C     C_R   0.943821 0.252378 0.522809 0.001971
C53   C     C_R   0.522383 0.918039 0.541933 -0.100029
C54   C     C_R   0.529052 0.928566 0.467737 -0.146596
C55   C     C_R   0.022383 0.418039 0.541933 -0.100029
C56   C     C_R   0.029052 0.428566 0.467737 -0.146596
C57   C     C_3   0.452001 0.620135 0.440880 -0.133207
C58   C     C_3   0.428907 0.617979 0.519742 -0.122248
C59   C     C_3   0.952001 0.120135 0.440880 -0.133207
C60   C     C_3   0.928907 0.117979 0.519742 -0.122248
C61   C     C_R   0.213975 0.507169 0.438329 -0.017471
C62   C     C_R   0.766481 0.557301 0.566951 -0.012742
C63   C     C_R   0.713975 0.007169 0.438329 -0.017471
C64   C     C_R   0.266481 0.057301 0.566951 -0.012742
C65   C     C_R   0.173674 0.596511 0.469628 0.052145
C66   C     C_R   0.827082 0.571958 0.527182 0.092265
C67   C     C_R   0.673674 0.096510 0.469628 0.052145
C68   C     C_R   0.327082 0.071958 0.527182 0.092265
C69   C     C_R   0.181997 0.622990 0.540046 -0.028726
C70   C     C_R   0.824845 0.571953 0.453428 -0.039560
C71   C     C_R   0.681997 0.122990 0.540046 -0.028726
C72   C     C_R   0.324845 0.071953 0.453428 -0.039560
C73   C     C_R   0.261716 0.456842 0.557806 -0.185533
C74   C     C_R   0.701588 0.524346 0.456836 -0.176778
C75   C     C_R   0.761716 0.956842 0.557806 -0.185533
C76   C     C_R   0.201588 0.024345 0.456836 -0.176778
C77   C     C_R   0.252387 0.427549 0.484403 -0.173757
C78   C     C_R   0.705800 0.521737 0.530866 -0.203873
C79   C     C_R   0.752387 0.927549 0.484403 -0.173757
C80   C     C_R   0.205800 0.021737 0.530866 -0.203873
C81   C     C_3   0.156855 0.723591 0.447394 0.159121
C82   C     C_3   0.882412 0.664859 0.532508 0.164419
C83   C     C_3   0.656855 0.223591 0.447394 0.159120
C84   C     C_3   0.382412 0.164859 0.532508 0.164418
C85   C     C_3   0.167985 0.753157 0.525651 -0.212203
C86   C     C_3   0.885085 0.658870 0.451211 -0.221928
C87   C     C_3   0.667985 0.253157 0.525651 -0.212203
C88   C     C_3   0.385085 0.158870 0.451211 -0.221929
C89   C     C_R   0.259631 0.633304 0.850950 0.535779
C90   C     C_R   0.740092 0.634589 0.149619 0.538074
C91   C     C_R   0.759631 0.133303 0.850950 0.535779
C92   C     C_R   0.240092 0.134589 0.149619 0.538074
C93   C     C_R   0.234252 0.566686 0.582458 -0.008773
C94   C     C_R   0.758786 0.565555 0.418082 -0.002981
C95   C     C_R   0.734252 0.066686 0.582458 -0.008773
C96   C     C_R   0.258786 0.065555 0.418082 -0.002981
C97   C     C_R   0.274349 0.039387 0.643080 0.535471
C98   C     C_R   0.708067 0.994042 0.361106 0.574333
C99   C     C_R   0.774349 0.539387 0.643080 0.535471
C100  C     C_R   0.208067 0.494042 0.361106 0.574333
C101  C     C_R   0.466100 0.822551 0.645554 0.559060
C102  C     C_R   0.531249 0.824008 0.352662 0.551810
C103  C     C_R   0.966100 0.322551 0.645554 0.559060
C104  C     C_R   0.031249 0.324008 0.352662 0.551810
C105  C     C_R   0.257168 0.630682 0.646941 0.539564
C106  C     C_R   0.742356 0.631932 0.353224 0.541511
C107  C     C_R   0.757168 0.130682 0.646941 0.539564
C108  C     C_R   0.242356 0.131932 0.353224 0.541511
C109  C     C_3   0.465470 0.939370 0.031469 -0.120442
C110  C     C_3   0.514134 0.911926 0.968016 -0.105883
C111  C     C_3   0.965470 0.439370 0.031469 -0.120442
C112  C     C_3   0.014134 0.411926 0.968016 -0.105883
C113  C     C_3   0.410032 0.851850 0.999978 -0.138143
C114  C     C_3   0.548566 0.806121 0.010650 -0.114678
C115  C     C_3   0.910032 0.351850 0.999978 -0.138143
C116  C     C_3   0.048566 0.306121 0.010650 -0.114678
C117  C     C_3   0.459505 0.824099 0.938103 0.053400
C118  C     C_3   0.499248 0.832779 0.072854 0.056482
C119  C     C_3   0.959505 0.324099 0.938103 0.053400
C120  C     C_3   0.999248 0.332779 0.072854 0.056482
Cr1   Cr    Cr6+3 0.229640 0.835880 0.747370 0.980079
Cr2   Cr    Cr6+3 0.770360 0.835880 0.252630 0.982321
Cr3   Cr    Cr6+3 0.729640 0.335880 0.747370 0.980079
Cr4   Cr    Cr6+3 0.270360 0.335880 0.252630 0.982321
Cr5   Cr    Cr6+3 0.387390 0.989720 0.750850 0.999763
Cr6   Cr    Cr6+3 0.612610 0.989720 0.249150 0.976669
Cr7   Cr    Cr6+3 0.887390 0.489720 0.750850 0.999763
Cr8   Cr    Cr6+3 0.112610 0.489720 0.249150 0.976669
Cr9   Cr    Cr6+3 0.385770 0.677220 0.749340 0.996187
Cr10  Cr    Cr6+3 0.614230 0.677220 0.250660 0.967911
Cr11  Cr    Cr6+3 0.885770 0.177220 0.749340 0.996187
Cr12  Cr    Cr6+3 0.114230 0.177220 0.250660 0.967911
H1    H     H_    0.352425 0.865932 0.994107 0.120829
H2    H     H_    0.606192 0.789883 0.015953 0.109217
H3    H     H_    0.852425 0.365932 0.994107 0.120829
H4    H     H_    0.106192 0.289882 0.015953 0.109217
H5    H     H_    0.551174 0.976834 0.576644 0.148645
H6    H     H_    0.558793 0.001004 0.445987 0.184816
H7    H     H_    0.051174 0.476834 0.576644 0.148645
H8    H     H_    0.058793 0.501004 0.445987 0.184816
H9    H     H_    0.001906 0.069282 0.432417 0.127446
H10   H     H_    0.872018 0.100491 0.524938 0.133876
H11   H     H_    0.501906 0.569282 0.432417 0.127446
H12   H     H_    0.372018 0.600491 0.524938 0.133876
H13   H     H_    0.290264 0.396757 0.593878 0.099914
H14   H     H_    0.650977 0.508439 0.431556 0.138543
H15   H     H_    0.790264 0.896757 0.593878 0.099914
H16   H     H_    0.150977 0.008439 0.431556 0.138543
H17   H     H_    0.276207 0.346977 0.463556 0.130016
H18   H     H_    0.662892 0.486054 0.559395 0.138106
H19   H     H_    0.776207 0.846977 0.463556 0.130016
H20   H     H_    0.162892 0.986054 0.559395 0.138106
H21   H     H_    0.197270 0.765328 0.413249 0.090739
H22   H     H_    0.860382 0.752204 0.551054 0.061881
H23   H     H_    0.697270 0.265328 0.413249 0.090739
H24   H     H_    0.360382 0.252204 0.551054 0.061881
H25   H     H_    0.217570 0.801561 0.536025 0.125486
H26   H     H_    0.873026 0.747492 0.425683 0.121562
H27   H     H_    0.717571 0.301561 0.536025 0.125486
H28   H     H_    0.373026 0.247492 0.425683 0.121562
H29   H     H_    0.120323 0.787915 0.552322 0.157996
H30   H     H_    0.933701 0.614984 0.431626 0.175443
H31   H     H_    0.620323 0.287915 0.552322 0.157996
H32   H     H_    0.433701 0.114984 0.431626 0.175443
H33   H     H_    0.456704 0.029625 0.054744 0.103460
H34   H     H_    0.541602 0.979396 0.934995 0.121371
H35   H     H_    0.956704 0.529625 0.054744 0.103460
H36   H     H_    0.041602 0.479396 0.934995 0.121371
H37   H     H_    0.503808 0.627390 0.958842 0.118182
H38   H     H_    0.416947 0.683410 0.078319 0.102288
H39   H     H_    0.003808 0.127390 0.958842 0.118182
H40   H     H_    0.916947 0.183410 0.078319 0.102288
H41   H     H_    0.135017 0.647957 0.919413 0.131808
H42   H     H_    0.858678 0.656493 0.075394 0.126628
H43   H     H_    0.635017 0.147957 0.919413 0.131808
H44   H     H_    0.358678 0.156493 0.075394 0.126628
H45   H     H_    0.115053 0.595521 0.043454 0.134709
H46   H     H_    0.863982 0.648202 0.947214 0.141326
H47   H     H_    0.615053 0.095521 0.043454 0.134709
H48   H     H_    0.363982 0.148202 0.947214 0.141326
H49   H     H_    0.867486 0.853879 0.055530 0.134934
H50   H     H_    0.117592 0.902101 0.937979 0.138578
H51   H     H_    0.367486 0.353879 0.055530 0.134934
H52   H     H_    0.617592 0.402101 0.937979 0.138578
H53   H     H_    0.364001 0.514445 0.081186 0.127469
H54   H     H_    0.615437 0.570442 0.927624 0.134089
H55   H     H_    0.864001 0.014445 0.081186 0.127469
H56   H     H_    0.115437 0.070442 0.927624 0.134089
H57   H     H_    0.383845 0.570781 0.956616 0.150586
H58   H     H_    0.604569 0.586874 0.057029 0.168480
H59   H     H_    0.883845 0.070781 0.956616 0.150586
H60   H     H_    0.104569 0.086874 0.057029 0.168480
H61   H     H_    0.387078 0.407111 0.932964 0.129022
H62   H     H_    0.609130 0.419121 0.065759 0.134168
H63   H     H_    0.887078 0.907111 0.932964 0.129022
H64   H     H_    0.109130 0.919121 0.065759 0.134168
O1    O     O_R   0.214300 0.709080 0.827500 -0.530458
O2    O     O_R   0.785700 0.709080 0.172500 -0.535047
O3    O     O_R   0.714300 0.209080 0.827500 -0.530458
O4    O     O_R   0.285700 0.209080 0.172500 -0.535047
O5    O     O_R   0.445900 0.919370 0.676500 -0.480734
O6    O     O_R   0.554100 0.919370 0.323500 -0.533642
O7    O     O_R   0.945900 0.419370 0.676500 -0.480734
O8    O     O_R   0.054100 0.419370 0.323500 -0.533642
O9    O     O_R   0.456660 0.717710 0.669820 -0.497453
O10   O     O_R   0.543340 0.717710 0.330180 -0.523888
O11   O     O_R   0.956660 0.217710 0.669820 -0.497453
O12   O     O_R   0.043340 0.217710 0.330180 -0.523888
O13   O     O_R   0.320590 0.625770 0.672930 -0.508276
O14   O     O_R   0.679410 0.625770 0.327070 -0.516364
O15   O     O_R   0.820590 0.125770 0.672930 -0.508276
O16   O     O_R   0.179410 0.125770 0.327070 -0.516364
O17   O     O_3   0.334270 0.834280 0.749190 -0.269082
O18   O     O_3   0.665730 0.834280 0.250810 -0.285959
O19   O     O_3   0.834270 0.334280 0.749190 -0.269082
O20   O     O_3   0.165730 0.334280 0.250810 -0.285959
O21   O     O_R   0.236190 0.958390 0.823150 -0.504858
O22   O     O_R   0.763810 0.958390 0.176850 -0.507527
O23   O     O_R   0.736190 0.458390 0.823150 -0.504858
O24   O     O_R   0.263810 0.458390 0.176850 -0.507527
O25   O     O_R   0.332090 0.075280 0.831290 -0.537835
O26   O     O_R   0.667910 0.075280 0.168710 -0.528898
O27   O     O_R   0.832090 0.575280 0.831290 -0.537835
O28   O     O_R   0.167910 0.575280 0.168710 -0.528897
O29   O     O_R   0.446280 0.918040 0.826620 -0.514418
O30   O     O_R   0.553720 0.918040 0.173380 -0.523386
O31   O     O_R   0.946280 0.418040 0.826620 -0.514418
O32   O     O_R   0.053720 0.418040 0.173380 -0.523386
O33   O     O_R   0.457080 0.716270 0.831760 -0.527663
O34   O     O_R   0.542920 0.716270 0.168240 -0.529842
O35   O     O_R   0.957080 0.216270 0.831760 -0.527663
O36   O     O_R   0.042920 0.216270 0.168240 -0.529841
O37   O     O_R   0.320980 0.624440 0.823040 -0.517128
O38   O     O_R   0.679020 0.624440 0.176960 -0.506312
O39   O     O_R   0.820980 0.124440 0.823040 -0.517128
O40   O     O_R   0.179020 0.124440 0.176960 -0.506312
O41   O     O_R   0.213880 0.710510 0.665560 -0.528310
O42   O     O_R   0.786120 0.710510 0.334440 -0.539271
O43   O     O_R   0.713880 0.210510 0.665560 -0.528310
O44   O     O_R   0.286120 0.210510 0.334440 -0.539271
O45   O     O_R   0.235800 0.959720 0.673040 -0.515670
O46   O     O_R   0.764200 0.959720 0.326960 -0.488641
O47   O     O_R   0.735800 0.459720 0.673040 -0.515670
O48   O     O_R   0.264200 0.459720 0.326960 -0.488641
O49   O     O_R   0.331670 0.076720 0.669350 -0.500041
O50   O     O_R   0.668330 0.076720 0.330650 -0.519904
O51   O     O_R   0.831670 0.576720 0.669350 -0.500041
O52   O     O_R   0.168330 0.576720 0.330650 -0.519904
C121  C     C_R   0.398576 0.614246 0.379081 0.041921
C122  C     C_R   0.339573 0.693194 0.375515 -0.082409
C123  C     C_R   0.307505 0.723271 0.309178 -0.078335
C124  C     C_R   0.331869 0.671672 0.246224 -0.043862
C125  C     C_R   0.387033 0.587347 0.249673 -0.049391
C126  C     C_R   0.419773 0.558143 0.315627 -0.049606
H65   H     H_    0.322638 0.739824 0.423048 0.092380
H66   H     H_    0.264829 0.788733 0.306293 0.095088
H67   H     H_    0.307859 0.696677 0.194799 0.116724
H68   H     H_    0.406202 0.547492 0.200981 0.086120
H69   H     H_    0.465934 0.500437 0.315966 0.081750
C127  C     C_R   0.476165 0.547911 0.573536 0.041241
C128  C     C_R   0.546809 0.580711 0.584360 -0.110222
C129  C     C_R   0.580744 0.561477 0.651326 -0.096225
C130  C     C_R   0.547840 0.498312 0.705710 -0.072531
C131  C     C_R   0.479611 0.458203 0.694206 -0.095788
C132  C     C_R   0.444422 0.482212 0.628542 -0.068333
H70   H     H_    0.572512 0.635630 0.544696 0.108644
H71   H     H_    0.631560 0.600368 0.661859 0.121056
H72   H     H_    0.574394 0.483362 0.757192 0.105010
H73   H     H_    0.453091 0.411310 0.736807 0.075282
H74   H     H_    0.390944 0.456155 0.622961 0.092941
C133  C     C_R   0.898576 0.114246 0.379081 0.041921
C134  C     C_R   0.839573 0.193194 0.375515 -0.082409
C135  C     C_R   0.807505 0.223271 0.309178 -0.078335
C136  C     C_R   0.831869 0.171672 0.246224 -0.043862
C137  C     C_R   0.887033 0.087347 0.249672 -0.049392
C138  C     C_R   0.919773 0.058143 0.315627 -0.049606
H75   H     H_    0.822638 0.239824 0.423048 0.092380
H76   H     H_    0.764829 0.288734 0.306293 0.095088
H77   H     H_    0.807859 0.196677 0.194799 0.116724
H78   H     H_    0.906202 0.047492 0.200981 0.086120
H79   H     H_    0.965934 0.000437 0.315966 0.081750
C139  C     C_R   0.976164 0.047911 0.573536 0.041241
C140  C     C_R   0.046809 0.080711 0.584360 -0.110222
C141  C     C_R   0.080744 0.061477 0.651326 -0.096225
C142  C     C_R   0.047840 0.998313 0.705710 -0.072531
C143  C     C_R   0.979611 0.958203 0.694206 -0.095788
C144  C     C_R   0.944422 0.982212 0.628542 -0.068333
H80   H     H_    0.072512 0.135630 0.544696 0.108643
H81   H     H_    0.131560 0.100368 0.661859 0.121056
H82   H     H_    0.074394 0.983362 0.757192 0.105010
H83   H     H_    0.953091 0.911310 0.736807 0.075282
H84   H     H_    0.890944 0.956155 0.622961 0.092941
O53   O     O_3   0.085334 0.735822 0.424988 -0.557689
C145  C     C_3   0.078149 0.802087 0.359697 0.006721
H85   H     H_    0.124224 0.793968 0.324155 0.140934
H86   H     H_    0.069470 0.898646 0.371757 0.112720
C146  C     C_3   0.014736 0.757386 0.317010 -0.351489
H87   H     H_    0.965856 0.779111 0.345583 0.129871
H88   H     H_    0.011976 0.802199 0.263353 0.069703
H89   H     H_    0.018940 0.658489 0.309516 0.185778
O54   O     O_3   0.943900 0.620080 0.568840 -0.525072
C147  C     C_3   0.971667 0.711320 0.613000 0.006288
H90   H     H_    0.930262 0.745921 0.648952 0.130440
H91   H     H_    0.992576 0.783507 0.578069 0.146821
C148  C     C_3   0.031587 0.666667 0.662846 -0.359515
H92   H     H_    0.077555 0.637769 0.632332 0.150205
H93   H     H_    0.049397 0.740996 0.697817 0.091969
H94   H     H_    0.014607 0.593279 0.698626 0.177523
O55   O     O_3   0.585334 0.235822 0.424988 -0.557689
C149  C     C_3   0.578149 0.302086 0.359697 0.006721
H95   H     H_    0.624224 0.293967 0.324155 0.140935
H96   H     H_    0.569470 0.398646 0.371757 0.112720
C150  C     C_3   0.514736 0.257386 0.317010 -0.351488
H97   H     H_    0.465856 0.279112 0.345584 0.129871
H98   H     H_    0.511976 0.302198 0.263353 0.069703
H99   H     H_    0.518940 0.158489 0.309517 0.185777
O56   O     O_3   0.443901 0.120080 0.568840 -0.525072
C151  C     C_3   0.471667 0.211320 0.613000 0.006288
H100  H     H_    0.430262 0.245921 0.648952 0.130440
H101  H     H_    0.492576 0.283507 0.578069 0.146821
C152  C     C_3   0.531587 0.166667 0.662846 -0.359515
H102  H     H_    0.577555 0.137769 0.632332 0.150205
H103  H     H_    0.549397 0.240996 0.697817 0.091969
H104  H     H_    0.514607 0.093279 0.698626 0.177523

loop_
_geom_bond_atom_site_label_1
_geom_bond_atom_site_label_2
_ccdc_geom_bond_type
Cr4   O24   S    
C131  H73   S    
Cr6   O50   S    
C73   C93   A    
Cr8   O28   S    
C75   C95   A    
C48   C120  S    
O54   C147  S    
Cr6   O6    S    
C139  C140  A    
C143  H83   S    
C53   H5    S    
C104  O8    A    
C141  C142  A    
C63   C98   S    
C69   C93   A    
C97   O49   A    
C5    C6    S    
C20   C40   A    
C71   C95   A    
C133  C134  A    
C106  O14   A    
C29   C33   S    
C55   H7    S    
C33   H57   S    
C136  C137  A    
C9    C13   A    
C72   C88   S    
C11   C15   A    
C125  H68   S    
C12   C16   A    
C134  C135  A    
Cr12  O20   S    
Cr4   O48   S    
C82   O54   S    
C34   H62   S    
C96   C108  S    
C59   C60   S    
C113  H1    S    
C31   H49   S    
Cr6   O30   S    
C41   C49   A    
C109  C118  S    
C149  H96   S    
Cr11  O19   S    
C51   C52   A    
C7    C119  S    
C123  C124  A    
C57   H11   S    
Cr11  O39   S    
C92   O40   A    
C58   C127  S    
Cr1   O17   S    
C132  H74   S    
C66   C82   S    
C11   C27   A    
C16   C20   A    
C45   O29   A    
Cr12  O40   S    
C64   C97   S    
C21   H41   S    
C111  H35   S    
C57   C121  S    
C24   H44   S    
C151  C152  S    
C140  H80   S    
C84   C88   S    
C38   C90   S    
C135  H76   S    
C137  H78   S    
C18   C38   A    
C128  H70   S    
C101  O5    A    
C76   C96   A    
C84   H24   S    
C44   C55   A    
Cr7   O19   S    
C123  H66   S    
C66   C70   A    
C126  H69   S    
C56   H8    S    
C87   H27   S    
Cr10  O18   S    
C88   H28   S    
C98   O46   A    
C62   C99   S    
C72   C96   A    
C61   C65   A    
C107  O15   A    
C76   H16   S    
C152  H102  S    
Cr9   O37   S    
C2    O22   A    
C73   C77   A    
C19   C35   S    
C75   C79   A    
C124  C125  A    
C22   C38   A    
C67   C83   S    
C111  C112  S    
C30   C34   S    
Cr11  O11   S    
Cr3   O47   S    
C7    C8    S    
C53   C54   A    
Cr1   O45   S    
C121  C122  A    
C64   C68   A    
C1    O25   A    
C103  O11   A    
C42   C53   A    
C125  C126  A    
C48   O32   A    
C150  H98   S    
C83   H23   S    
C91   O39   A    
C81   H21   S    
C41   C102  S    
C89   O37   A    
C43   C104  S    
C151  H101  S    
C52   C60   S    
C61   C77   A    
C131  C132  A    
C148  H93   S    
C110  C114  S    
C100  O48   A    
C44   C52   A    
C139  C144  A    
C146  H88   S    
C1    C12   S    
Cr5   O17   S    
C2    C11   S    
C108  O16   A    
C44   C103  S    
Cr3   O43   S    
C133  C138  A    
C147  H91   S    
C62   C66   A    
C136  H77   S    
C34   H58   S    
C10   C14   A    
C129  H71   S    
C88   H32   S    
C116  C120  S    
C73   H13   S    
C7    C116  S    
C36   H64   S    
O53   C145  S    
Cr10  O10   S    
C86   H26   S    
Cr8   O32   S    
C152  H104  S    
C114  H2    S    
C105  O41   A    
Cr2   O2    S    
C102  O10   A    
C19   C39   A    
C42   C50   A    
C113  C117  S    
Cr8   O20   S    
C115  C119  S    
Cr11  O15   S    
C61   C100  S    
C99   O51   A    
C42   C101  S    
C112  C116  S    
C69   C85   S    
C6    H38   S    
Cr11  O35   S    
Cr3   O23   S    
C35   H59   S    
C36   H60   S    
Cr1   O21   S    
C62   C78   A    
C76   C80   A    
C127  C128  A    
C15   C31   S    
C129  C130  A    
Cr5   O25   S    
C16   C32   S    
C89   O1    A    
C13   C17   A    
C57   C58   S    
Cr2   O42   S    
C115  H3    S    
C29   H53   S    
Cr9   O17   S    
C58   H12   S    
C47   O31   A    
C59   H9    S    
C49   C50   A    
C140  C141  A    
C144  H84   S    
C7    H39   S    
C92   O4    A    
C81   C85   S    
C83   C87   S    
C55   C56   A    
Cr3   O19   S    
C85   H29   S    
C74   C94   A    
Cr5   O49   S    
C137  C138  A    
C9    C25   A    
C130  C131  A    
C15   C19   A    
Cr5   O5    S    
C17   C33   S    
C12   C28   A    
C13   C29   S    
C70   C94   A    
C27   H47   S    
C98   O50   A    
C145  H85   S    
Cr4   O44   S    
C25   H45   S    
C23   H43   S    
Cr10  O34   S    
C45   C117  S    
C2    O26   A    
C105  O13   A    
C46   C118  S    
Cr8   O8    S    
C39   C91   S    
C21   C25   A    
Cr6   O18   S    
C60   H10   S    
C4    O24   A    
C3    O27   A    
Cr2   O22   S    
C35   H63   S    
C33   H61   S    
C121  C126  A    
Cr7   O31   S    
C64   C80   A    
C85   H25   S    
Cr5   O29   S    
C101  O9    A    
C110  C117  S    
C124  H67   S    
C130  H72   S    
C68   C84   S    
C24   C28   A    
C145  C146  S    
C77   H17   S    
C75   H15   S    
C122  C123  A    
C82   C86   S    
C107  O43   A    
Cr10  O38   S    
Cr2   O18   S    
C68   C72   A    
C50   C58   S    
C142  C143  A    
C100  O52   A    
Cr9   O9    S    
C65   C81   S    
C109  H33   S    
C71   C87   S    
C141  H81   S    
C60   C139  S    
Cr7   O51   S    
C106  O42   A    
C32   C36   S    
Cr3   O3    S    
C149  H95   S    
C46   O34   A    
C74   H14   S    
C112  C119  S    
C116  H4    S    
Cr4   O4    S    
C37   C89   S    
C102  O6    A    
C109  C110  S    
C43   C51   A    
C150  H97   S    
C128  C129  A    
C65   C69   A    
C67   C71   A    
C104  O12   A    
C99   O47   A    
C97   O45   A    
C20   C36   S    
C21   C37   A    
C83   O55   S    
C3    O23   A    
C148  H92   S    
C22   C26   A    
C5    H37   S    
C1    O21   A    
C127  C132  A    
Cr7   O7    S    
C8    H40   S    
C149  C150  S    
C87   H31   S    
C134  H75   S    
C5    C114  S    
C146  H87   S    
C14   C18   A    
Cr12  O16   S    
C49   C57   S    
Cr2   O46   S    
C63   C79   A    
O55   C149  S    
C147  C148  S    
C30   H54   S    
C32   H50   S    
C143  C144  A    
C23   C39   A    
C47   O35   A    
C138  H79   S    
C112  H36   S    
Cr9   O33   S    
C90   O38   A    
C81   O53   S    
C8    C115  S    
C93   C105  S    
C108  O44   A    
C152  H103  S    
C86   H30   S    
C23   C27   A    
C74   C78   A    
Cr7   O27   S    
C91   O3    A    
C10   C26   A    
C47   C119  S    
C45   O33   A    
C14   C30   S    
Cr12  O36   S    
C22   H42   S    
C26   H46   S    
C63   C67   A    
C32   H56   S    
Cr8   O52   S    
C150  H99   S    
C4    O28   A    
C142  H82   S    
C5    C117  S    
C111  C120  S    
C48   O36   A    
C6    C113  S    
C151  H100  S    
C28   H48   S    
C148  H94   S    
C135  C136  A    
C46   O30   A    
C59   C133  S    
C17   C37   A    
C40   C92   S    
C18   C34   S    
Cr1   O1    S    
C114  C118  S    
C95   C107  S    
Cr12  O12   S    
C146  H89   S    
Cr10  O14   S    
C51   C59   S    
C70   C86   S    
C78   H18   S    
C79   H19   S    
Cr4   O20   S    
C122  H65   S    
C80   H20   S    
C8    C120  S    
C147  H90   S    
C94   C106  S    
C29   H51   S    
C30   H52   S    
Cr6   O26   S    
C90   O2    A    
C109  C113  S    
C4    C9    S    
C84   O56   S    
C3    C10   S    
C145  H86   S    
C110  H34   S    
C54   H6    S    
Cr1   O41   S    
C24   C40   A    
C31   C35   S    
O56   C151  S    
C103  O7    A    
C41   C54   A    
C82   H22   S    
C43   C56   A    
C111  C115  S    
C31   H55   S    
Cr9   O13   S    
C6    C118  S    
