data_mof_unit_45474.cif
_audit_creation_date              2012-12-10T18:08:23-0500
_audit_creation_method            fapswitch 2.2
_symmetry_space_group_name_H-M    P1
_symmetry_Int_Tables_number       1
_space_group_crystal_system       triclinic
_cell_length_a                    12.718348
_cell_length_b                    13.193513
_cell_length_c                    14.150374
_cell_angle_alpha                 92.453682
_cell_angle_beta                  102.609834
_cell_angle_gamma                 82.620375
_cell_volume                      2297.69460403

loop_
_atom_site_label
_atom_site_type_symbol
_atom_type_description
_atom_site_fract_x
_atom_site_fract_y
_atom_site_fract_z
_atom_type_partial_charge
C1    C     C_R   0.439766 0.690418 0.488621 0.838392
C2    C     C_1   0.494941 0.498960 0.227079 -0.112387
C3    C     C_R   0.690451 0.070151 0.641468 0.407200
C4    C     C_R   0.598107 0.200434 0.527088 -0.078363
C5    C     C_R   0.350859 0.807469 0.360941 -0.161736
C6    C     C_R   0.371835 0.885250 0.307057 0.152943
C7    C     C_R   0.444272 0.952942 0.352178 -0.215725
C8    C     C_R   0.484103 0.953141 0.453820 0.095818
C9    C     C_R   0.465994 0.870942 0.505931 0.011002
C10   C     C_R   0.547078 0.028109 0.504585 -0.046900
C11   C     C_R   0.611196 0.005932 0.599449 -0.107005
C12   C     C_R   0.501831 0.500579 0.670654 0.872197
C13   C     C_R   0.587405 0.925562 0.651058 0.470564
C14   C     C_R   0.513015 0.861714 0.604860 -0.202518
C15   C     C_R   0.538771 0.128878 0.470501 0.026506
C16   C     C_R   0.681999 0.169095 0.606223 -0.043201
C17   C     C_R   0.406103 0.794863 0.457378 -0.086275
C18   C     C_R   0.078448 0.400851 0.324562 0.001508
C19   C     C_R   0.804664 0.621787 0.620715 0.471668
C20   C     C_R   0.904046 0.659683 0.639687 -0.267766
C21   C     C_R   0.980160 0.627190 0.585215 0.356843
C22   C     C_R   0.958423 0.550427 0.513366 -0.108943
C23   C     C_R   0.560642 0.309096 0.511112 0.959974
C24   C     C_R   0.851566 0.519849 0.489352 -0.034538
C25   C     C_R   0.037612 0.501978 0.463650 -0.050907
C26   C     C_R   0.001911 0.454903 0.372069 -0.047533
C27   C     C_R   0.889988 0.454902 0.336145 0.363975
C28   C     C_R   0.824181 0.461728 0.402706 0.347520
C29   C     C_R   0.150282 0.493787 0.503802 -0.017056
C30   C     C_R   0.188420 0.396558 0.367765 0.455273
C31   C     C_R   0.498116 0.499643 0.329349 0.907003
C32   C     C_1   0.505295 0.501228 0.772999 -0.124487
C33   C     C_1   0.504952 0.501091 0.858310 0.042102
C34   C     C_1   0.502134 0.500429 0.957799 0.060637
C35   C     C_1   0.498980 0.499739 0.042488 0.067943
C36   C     C_1   0.495762 0.499085 0.141877 0.054587
H1    H     H_    0.182455 0.523932 0.574618 0.196604
H2    H     H_    0.920389 0.718387 0.695043 0.243091
H3    H     H_    0.304670 0.748490 0.323629 0.161847
H4    H     H_    0.472428 0.000887 0.305966 0.145863
H5    H     H_    0.493105 0.802629 0.646590 0.192803
N1    N     N_R   0.222200 0.444680 0.454480 -0.144670
N2    N     N_R   0.776970 0.554780 0.545050 -0.132385
O1    O     O_R   0.366740 0.627160 0.478260 -0.590034
O2    O     O_R   0.544830 0.662520 0.507340 -0.576076
O3    O     O_R   0.410930 0.482320 0.611740 -0.609210
O4    O     O_R   0.589030 0.517680 0.640820 -0.544395
O5    O     O_R   0.455170 0.337480 0.492660 -0.565361
O6    O     O_R   0.633260 0.372840 0.521740 -0.542117
O7    O     O_R   0.410970 0.482320 0.359180 -0.554352
O8    O     O_R   0.589070 0.517680 0.388260 -0.572472
Zn1   Zn    Zn3+2 0.381090 0.476390 0.480580 1.021317
Zn2   Zn    Zn3+2 0.618910 0.523610 0.519420 1.049669
N3    N     N_3   0.752462 0.240539 0.655083 -0.395471
H6    H     H_    0.832428 0.212005 0.652750 0.253608
H7    H     H_    0.745585 0.247165 0.727446 0.224467
Cl1   Cl    Cl    0.829141 0.431082 0.213289 -0.511481
N4    N     N_3   0.045284 0.345086 0.235979 -0.341773
H8    H     H_    0.073992 0.267678 0.246888 0.237641
H9    H     H_    0.078961 0.372447 0.182421 0.245926
Cl2   Cl    Cl    0.714963 0.672512 0.693209 -0.527031
Cl3   Cl    Cl    0.088204 0.701974 0.597155 -0.576211
Cl4   Cl    Cl    0.754636 0.354343 0.391997 -0.530389
Cl5   Cl    Cl    0.629617 0.912269 0.777796 -0.448269
Cl6   Cl    Cl    0.804501 0.027985 0.733316 -0.490805
N5    N     N_3   0.457954 0.166753 0.388336 -0.389697
H10   H     H_    0.383785 0.139024 0.384608 0.243999
H11   H     H_    0.487926 0.157576 0.325028 0.219489
N6    N     N_3   0.326014 0.889356 0.205003 -0.415468
H12   H     H_    0.361859 0.825267 0.172534 0.192584
H13   H     H_    0.346071 0.953626 0.175306 0.206566
Cl7   Cl    Cl    0.281705 0.329084 0.306079 -0.636120

loop_
_geom_bond_atom_site_label_1
_geom_bond_atom_site_label_2
_ccdc_geom_bond_type
C4    C16   A    
C6    N6    S    
N5    H11   S    
C9    C14   A    
C6    C7    A    
C18   C30   A    
C29   N1    A    
C4    C23   S    
C20   H2    S    
C19   C20   A    
C1    O1    A    
O7    Zn1   S    
C35   C36   S    
C18   C26   A    
C3    C11   A    
O4    Zn2   S    
C7    H4    S    
C32   C33   T    
O1    Zn1   S    
C4    C15   A    
N5    H10   S    
C21   Cl3   S    
O2    Zn2   S    
C7    C8    A    
C16   N3    S    
C30   Cl7   S    
C13   C14   A    
C12   C32   S    
C11   C13   A    
C1    O2    A    
C26   C27   A    
C3    Cl6   S    
C13   Cl5   S    
C14   H5    S    
C19   Cl2   S    
C12   O4    A    
O6    Zn2   S    
C5    C6    A    
C9    C17   A    
C19   N2    A    
C33   C34   S    
C22   C24   A    
C10   C15   A    
C5    H3    S    
C25   C29   A    
N6    H12   S    
N3    H7    S    
C23   O6    A    
C5    C17   A    
C10   C11   A    
C18   N4    S    
C31   O7    A    
N4    H9    S    
C28   Cl4   S    
O3    Zn1   S    
O5    Zn1   S    
C2    C36   T    
C20   C21   A    
C8    C9    A    
C12   O3    A    
C34   C35   T    
C27   Cl1   S    
C29   H1    S    
C27   C28   A    
N6    H13   S    
C24   N2    A    
C15   N5    S    
N3    H6    S    
C30   N1    A    
C23   O5    A    
C25   C26   A    
C21   C22   A    
N4    H8    S    
C1    C17   S    
N2    Zn2   S    
C8    C10   A    
C3    C16   A    
C24   C28   A    
C31   O8    A    
C2    C31   S    
O8    Zn2   S    
C22   C25   A    
N1    Zn1   S    
