data_mof_unit_57289.cif
_audit_creation_date              2012-12-11T14:56:09-0500
_audit_creation_method            fapswitch 2.2
_symmetry_space_group_name_H-M    P1
_symmetry_Int_Tables_number       1
_space_group_crystal_system       triclinic
_cell_length_a                    28.056165
_cell_length_b                    17.245993
_cell_length_c                    18.066927
_cell_angle_alpha                 90.054095
_cell_angle_beta                  138.134553
_cell_angle_gamma                 90.017997
_cell_volume                      5834.12342836

loop_
_atom_site_label
_atom_site_type_symbol
_atom_type_description
_atom_site_fract_x
_atom_site_fract_y
_atom_site_fract_z
_atom_type_partial_charge
C1    C     C_R   0.687519 0.897821 0.802244 -0.159612
C2    C     C_R   0.312493 0.102123 0.197656 -0.159078
C3    C     C_R   0.334046 0.923539 0.183204 -0.124734
C4    C     C_R   0.666494 0.076384 0.816880 -0.112504
C5    C     C_R   0.167652 0.422487 0.817356 -0.135566
C6    C     C_R   0.832246 0.577732 0.182617 -0.135141
C7    C     C_R   0.812741 0.399102 0.195963 -0.137173
C8    C     C_R   0.187290 0.601852 0.803255 -0.148631
C9    C     C_3   0.704182 0.298275 0.983522 -0.158628
C10   C     C_3   0.275191 0.703367 0.017203 -0.144091
C11   C     C_3   0.228600 0.345753 0.047918 -0.122171
C12   C     C_3   0.771639 0.654374 0.952282 -0.121352
C13   C     C_3   0.267701 0.847015 0.951374 -0.137820
C14   C     C_3   0.752968 0.151921 0.047695 -0.145719
C15   C     C_3   0.769533 0.795546 0.012983 -0.131865
C16   C     C_3   0.230229 0.204508 0.986781 -0.132333
C17   C     C_R   0.725835 0.758443 0.655657 0.004077
C18   C     C_R   0.274239 0.241635 0.344540 0.004132
C19   C     C_R   0.395129 0.867313 0.656127 0.031686
C20   C     C_R   0.604866 0.132684 0.343869 0.031664
C21   C     C_R   0.141705 0.315881 0.411874 0.015231
C22   C     C_R   0.857674 0.684464 0.587004 0.015475
C23   C     C_R   0.798323 0.261004 0.433528 0.006162
C24   C     C_R   0.201687 0.739001 0.566508 0.009512
C25   C     C_R   0.246232 0.366492 0.366337 -0.245862
C26   C     C_R   0.753714 0.633653 0.633520 -0.245864
C27   C     C_R   0.606579 0.234323 0.253191 -0.251740
C28   C     C_R   0.393429 0.765702 0.746854 -0.252163
C29   C     C_R   0.861497 0.792227 0.677342 -0.250898
C30   C     C_R   0.137929 0.208136 0.321548 -0.251194
C31   C     C_R   0.219413 0.865855 0.532143 -0.221338
C32   C     C_R   0.780582 0.134133 0.467836 -0.222143
C33   C     C_R   0.286389 0.322498 0.362644 0.315200
C34   C     C_R   0.713693 0.677585 0.637537 0.315167
C35   C     C_R   0.569259 0.192872 0.264351 0.330890
C36   C     C_R   0.430741 0.807135 0.735663 0.331290
C37   C     C_R   0.873225 0.763455 0.620586 0.312989
C38   C     C_R   0.126014 0.236929 0.378046 0.312316
C39   C     C_R   0.173545 0.807412 0.501286 0.320638
C40   C     C_R   0.826458 0.192572 0.498708 0.320298
C41   C     C_R   0.209191 0.213176 0.295415 -0.290473
C42   C     C_R   0.790810 0.786937 0.704542 -0.290344
C43   C     C_R   0.665871 0.100869 0.382043 -0.255008
C44   C     C_R   0.334123 0.899129 0.617947 -0.255829
C45   C     C_R   0.824574 0.638137 0.602647 -0.273583
C46   C     C_R   0.175004 0.362150 0.396543 -0.273494
C47   C     C_R   0.276045 0.729107 0.657234 -0.291090
C48   C     C_R   0.723966 0.270920 0.342832 -0.287410
C49   C     C_R   0.177352 0.251576 0.316878 0.142584
C50   C     C_R   0.822390 0.748666 0.682554 0.142475
C51   C     C_R   0.707528 0.148027 0.385992 0.116132
C52   C     C_R   0.292469 0.851976 0.614011 0.116710
C53   C     C_R   0.802165 0.671736 0.642876 0.131140
C54   C     C_R   0.197586 0.328493 0.356599 0.131064
C55   C     C_R   0.321292 0.782834 0.676048 0.135041
C56   C     C_R   0.678715 0.217186 0.323993 0.134398
C57   C     C_R   0.323809 0.104326 0.395267 -0.145811
C58   C     C_R   0.676203 0.895704 0.604768 -0.145615
C59   C     C_R   0.635319 0.066155 0.501664 -0.123208
C60   C     C_R   0.364681 0.933844 0.498335 -0.123597
C61   C     C_R   0.847483 0.584397 0.469225 -0.123697
C62   C     C_R   0.152262 0.415757 0.530262 -0.123436
C63   C     C_R   0.170379 0.601558 0.577518 -0.145288
C64   C     C_R   0.829630 0.398448 0.422511 -0.144535
C65   C     C_R   0.445373 0.838592 0.584315 -0.094584
C66   C     C_R   0.554629 0.161410 0.415689 -0.095118
C67   C     C_R   0.594776 0.802274 0.514801 -0.126516
C68   C     C_R   0.405268 0.197729 0.485308 -0.125882
C69   C     C_R   0.912143 0.305467 0.507834 -0.093926
C70   C     C_R   0.087863 0.694536 0.492186 -0.092980
C71   C     C_R   0.065403 0.325166 0.436458 -0.067167
C72   C     C_R   0.934240 0.675100 0.562940 -0.067331
C73   C     C_R   0.581874 0.168047 0.726270 -0.130886
C74   C     C_R   0.418157 0.831203 0.274347 -0.118143
C75   C     C_R   0.396082 0.193726 0.286746 -0.075394
C76   C     C_R   0.603917 0.806250 0.713189 -0.075254
C77   C     C_R   0.103577 0.693267 0.714759 -0.152474
C78   C     C_R   0.895678 0.306744 0.284895 -0.163429
C79   C     C_R   0.916482 0.669906 0.273420 -0.099966
C80   C     C_R   0.083498 0.330201 0.726632 -0.099807
C81   C     C_R   0.674486 0.822213 0.805778 0.069161
C82   C     C_R   0.325523 0.177734 0.194077 0.068823
C83   C     C_R   0.360963 0.863690 0.171632 0.037831
C84   C     C_R   0.639526 0.135453 0.829046 0.038298
C85   C     C_R   0.141457 0.362098 0.829285 0.042329
C86   C     C_R   0.858472 0.638115 0.170758 0.042838
C87   C     C_R   0.825362 0.323865 0.190765 0.048204
C88   C     C_R   0.174058 0.676988 0.808220 0.048522
C89   C     C_R   0.332773 0.184265 0.407729 0.113211
C90   C     C_R   0.667269 0.815771 0.592392 0.113509
C91   C     C_R   0.596369 0.119443 0.414579 0.089198
C92   C     C_R   0.403631 0.880556 0.585422 0.089170
C93   C     C_R   0.877249 0.649806 0.538733 0.094461
C94   C     C_R   0.122290 0.350491 0.460414 0.093792
C95   C     C_R   0.154103 0.678579 0.540192 0.111066
C96   C     C_R   0.845908 0.321427 0.459845 0.111636
C97   C     C_3   0.663981 0.229951 0.973531 -0.148947
C98   C     C_3   0.337621 0.746302 0.051703 -0.158149
C99   C     C_3   0.294955 0.306760 0.089999 -0.114618
C100  C     C_3   0.705103 0.693158 0.909830 -0.114820
C101  C     C_3   0.205253 0.803577 0.916751 -0.161454
C102  C     C_3   0.792680 0.220236 0.057020 -0.148937
C103  C     C_3   0.835898 0.757355 0.055061 -0.170262
C104  C     C_3   0.164040 0.242909 0.945068 -0.169891
C105  C     C_3   0.254680 0.776627 0.036549 -0.134066
C106  C     C_3   0.723807 0.247296 0.939592 -0.133701
C107  C     C_3   0.791400 0.731584 0.935556 -0.120718
C108  C     C_3   0.208783 0.268628 0.064702 -0.120383
C109  C     C_3   0.734016 0.203525 0.093290 -0.133130
C110  C     C_3   0.287540 0.772555 0.930237 -0.137732
C111  C     C_3   0.250793 0.280367 0.971874 -0.113958
C112  C     C_3   0.749021 0.719606 0.027827 -0.114048
C113  C     C_3   0.316634 0.819425 0.070389 0.163881
C114  C     C_3   0.684260 0.179475 0.930569 0.162803
C115  C     C_3   0.725884 0.769084 0.895595 0.151974
C116  C     C_3   0.274118 0.230916 0.104295 0.151946
C117  C     C_3   0.772939 0.270915 0.100563 0.162708
C118  C     C_3   0.226043 0.730393 0.897978 0.163884
C119  C     C_3   0.185022 0.318657 0.930691 0.122945
C120  C     C_3   0.814969 0.681526 0.069373 0.122715
H1    H     H_    0.739255 0.924999 0.855829 0.101243
H2    H     H_    0.260774 0.074874 0.143994 0.101444
H3    H     H_    0.285937 0.956256 0.117314 0.106174
H4    H     H_    0.714768 0.043737 0.882208 0.100091
H5    H     H_    0.216008 0.455147 0.882914 0.106260
H6    H     H_    0.783744 0.545348 0.116929 0.106085
H7    H     H_    0.761202 0.426430 0.142970 0.092668
H8    H     H_    0.239065 0.574955 0.856741 0.098757
H9    H     H_    0.873150 0.852781 0.701908 0.169979
H10   H     H_    0.126203 0.147606 0.296856 0.170106
H11   H     H_    0.197280 0.917416 0.481014 0.179755
H12   H     H_    0.802709 0.082557 0.518937 0.180091
H13   H     H_    0.258439 0.427387 0.388267 0.168461
H14   H     H_    0.741514 0.572757 0.611597 0.168376
H15   H     H_    0.581818 0.284099 0.198573 0.164863
H16   H     H_    0.418196 0.715939 0.801493 0.164804
H17   H     H_    0.273940 0.073861 0.330187 0.095409
H18   H     H_    0.726058 0.926193 0.669843 0.095412
H19   H     H_    0.673103 0.024189 0.525277 0.108425
H20   H     H_    0.326897 0.975811 0.474720 0.108470
H21   H     H_    0.801805 0.551162 0.434459 0.103245
H22   H     H_    0.197884 0.449018 0.564859 0.103314
H23   H     H_    0.222405 0.574737 0.634958 0.094468
H24   H     H_    0.777606 0.425271 0.365084 0.094407
H25   H     H_    0.479923 0.790765 0.636688 0.150783
H26   H     H_    0.520087 0.209243 0.363325 0.150881
H27   H     H_    0.568912 0.747037 0.492124 0.156493
H28   H     H_    0.431179 0.252947 0.508098 0.156738
H29   H     H_    0.934221 0.248927 0.521824 0.142183
H30   H     H_    0.065785 0.751077 0.478193 0.142340
H31   H     H_    0.027056 0.280784 0.378900 0.141682
H32   H     H_    0.972346 0.719709 0.620209 0.141623
H33   H     H_    0.552019 0.219070 0.707606 0.115582
H34   H     H_    0.448105 0.780031 0.293803 0.109507
H35   H     H_    0.421179 0.250240 0.315386 0.123053
H36   H     H_    0.578799 0.749748 0.684540 0.123073
H37   H     H_    0.079045 0.749984 0.686456 0.117723
H38   H     H_    0.919692 0.249744 0.312391 0.124617
H39   H     H_    0.946182 0.721174 0.292407 0.138089
H40   H     H_    0.053825 0.278923 0.707708 0.138168
H41   H     H_    0.241845 0.778824 0.081708 0.128566
H42   H     H_    0.719013 0.264586 0.875038 0.130687
H43   H     H_    0.806952 0.738104 0.894601 0.140223
H44   H     H_    0.193367 0.262204 0.105863 0.140175
H45   H     H_    0.739904 0.187613 0.159313 0.129946
H46   H     H_    0.299042 0.769151 0.883338 0.126758
H47   H     H_    0.267471 0.285671 0.932369 0.151806
H48   H     H_    0.732200 0.714209 0.067113 0.151975
H49   H     H_    0.610176 0.232201 0.936994 0.128077
H50   H     H_    0.392867 0.724202 0.108681 0.124475
H51   H     H_    0.349309 0.332374 0.150200 0.151887
H52   H     H_    0.650799 0.667398 0.849495 0.151840
H53   H     H_    0.150283 0.826283 0.860685 0.136108
H54   H     H_    0.846186 0.217467 0.092517 0.133099
H55   H     H_    0.890431 0.782578 0.115961 0.166959
H56   H     H_    0.109458 0.217831 0.884300 0.166922
H57   H     H_    0.685052 0.359076 0.958238 0.122148
H58   H     H_    0.277059 0.643719 0.042383 0.125338
H59   H     H_    0.226343 0.404651 0.070004 0.145738
H60   H     H_    0.774100 0.595504 0.930393 0.146463
H61   H     H_    0.266315 0.906919 0.927418 0.132498
H62   H     H_    0.771613 0.090919 0.071920 0.126998
H63   H     H_    0.767536 0.854178 0.036061 0.136844
H64   H     H_    0.232029 0.145849 0.963518 0.136913
H65   H     H_    0.806837 0.846143 0.733419 0.136471
H66   H     H_    0.193190 0.153958 0.266593 0.136495
H67   H     H_    0.310377 0.951504 0.569009 0.138680
H68   H     H_    0.689611 0.048487 0.430966 0.138708
H69   H     H_    0.188398 0.422059 0.423805 0.141802
H70   H     H_    0.811263 0.578196 0.575528 0.141796
H71   H     H_    0.701499 0.322989 0.292946 0.136772
H72   H     H_    0.298516 0.677058 0.707163 0.135871
N1    N     N_R   0.625380 0.928280 0.709340 -0.034866
N2    N     N_R   0.374620 0.071720 0.290660 -0.034588
N3    N     N_R   0.374620 0.928280 0.290660 -0.042866
N4    N     N_R   0.625380 0.071720 0.709340 -0.043065
N5    N     N_R   0.125380 0.428280 0.709340 -0.040696
N6    N     N_R   0.874620 0.571720 0.290660 -0.040971
N7    N     N_R   0.874620 0.428280 0.290660 -0.036272
N8    N     N_R   0.125380 0.571720 0.709340 -0.035747
N9    N     N_R   0.386100 0.070250 0.452470 -0.042487
N10   N     N_R   0.613900 0.929750 0.547530 -0.042564
N11   N     N_R   0.613900 0.070250 0.547530 -0.047025
N12   N     N_R   0.386100 0.929750 0.452470 -0.047063
N13   N     N_R   0.886100 0.570250 0.452470 -0.045574
N14   N     N_R   0.113900 0.429750 0.547530 -0.045547
N15   N     N_R   0.113900 0.570250 0.547530 -0.041786
N16   N     N_R   0.886100 0.429750 0.452470 -0.041999
N17   N     N_R   0.437800 0.869550 0.507970 -0.053212
N18   N     N_R   0.562200 0.130450 0.492030 -0.053307
N19   N     N_R   0.562200 0.869550 0.492030 -0.047835
N20   N     N_R   0.437800 0.130450 0.507970 -0.047487
N21   N     N_R   0.937800 0.369550 0.507970 -0.050665
N22   N     N_R   0.062200 0.630450 0.492030 -0.050879
N23   N     N_R   0.062200 0.369550 0.492030 -0.050762
N24   N     N_R   0.937800 0.630450 0.507970 -0.051031
N25   N     N_R   0.573690 0.128980 0.653840 -0.043968
N26   N     N_R   0.426310 0.871020 0.346160 -0.044069
N27   N     N_R   0.426310 0.128980 0.346160 -0.044609
N28   N     N_R   0.573690 0.871020 0.653840 -0.044721
N29   N     N_R   0.073690 0.628980 0.653840 -0.043153
N30   N     N_R   0.926310 0.371020 0.346160 -0.042858
N31   N     N_R   0.926310 0.628980 0.346160 -0.045045
N32   N     N_R   0.073690 0.371020 0.653840 -0.044971
Ni1   Ni    Ni4+2 0.616560 0.000000 0.627280 0.220304
Ni2   Ni    Ni4+2 0.383440 0.000000 0.372720 0.219747
Ni3   Ni    Ni4+2 0.116560 0.500000 0.627280 0.219707
Ni4   Ni    Ni4+2 0.883440 0.500000 0.372720 0.219769
Ni5   Ni    Ni4+2 0.497990 0.870580 0.500000 0.233796
Ni6   Ni    Ni4+2 0.502010 0.129420 0.500000 0.233135
Ni7   Ni    Ni4+2 0.997990 0.370580 0.500000 0.233391
Ni8   Ni    Ni4+2 0.002010 0.629420 0.500000 0.233421
Br1   Br    Br    0.647604 0.624379 0.624303 -0.618975
Br2   Br    Br    0.352623 0.375671 0.376181 -0.618711
Br3   Br    Br    0.529151 0.781295 0.832918 -0.613607
Br4   Br    Br    0.470845 0.218702 0.167082 -0.614446
Br5   Br    Br    0.103747 0.159108 0.425398 -0.570987
Br6   Br    Br    0.895143 0.841236 0.572684 -0.571857
Br7   Br    Br    0.924217 0.179031 0.642879 -0.602220
Br8   Br    Br    0.075788 0.820917 0.357094 -0.602136

loop_
_geom_bond_atom_site_label_1
_geom_bond_atom_site_label_2
_ccdc_geom_bond_type
N14   N23   A    
C78   C87   A    
C65   C92   A    
N16   N21   A    
C98   C110  S    
N1    N28   A    
C9    C117  S    
C83   C113  S    
C101  H53   S    
C103  C120  S    
C70   H30   S    
C104  C108  S    
C31   C52   A    
N5    N32   A    
N22   Ni8   S    
C110  C118  S    
N4    N25   A    
C109  C117  S    
C81   C115  S    
C104  H56   S    
C71   C94   A    
C19   C44   A    
C36   Br3   S    
C108  H44   S    
C74   H34   S    
C13   C110  S    
C57   C89   A    
N28   Ni5   S    
C106  C114  S    
N23   Ni7   S    
C101  C118  S    
C105  C113  S    
C76   N28   A    
C87   C117  S    
C40   Br7   S    
C19   C36   A    
C79   H39   S    
C61   C93   A    
C80   H40   S    
C100  H52   S    
C21   C94   S    
C1    C81   A    
C49   C54   A    
C112  H48   S    
C63   C95   A    
N3    N26   A    
C24   C39   A    
C97   C109  S    
C23   C96   S    
C4    H4    S    
N13   Ni4   S    
C11   C99   S    
C51   C56   A    
C47   H72   S    
C85   C119  S    
C17   C42   A    
C48   H71   S    
C31   H11   S    
C19   C92   S    
C77   H37   S    
C12   C120  S    
C20   C35   A    
C8    H8    S    
C29   H9    S    
C21   C38   A    
N13   N24   A    
C3    H3    S    
C72   H32   S    
C15   H63   S    
N12   N17   A    
C84   C114  S    
N11   N18   A    
C67   N19   A    
C75   N27   A    
C66   N18   A    
C25   H13   S    
N7    Ni4   S    
N10   N19   A    
C73   C84   A    
C65   N17   A    
C68   H28   S    
C52   C55   A    
C104  C119  S    
C5    C85   A    
C69   C96   A    
C2    H2    S    
C45   C53   A    
C63   N15   A    
C58   N10   A    
C26   C34   A    
C111  H47   S    
C24   C47   A    
C46   C54   A    
C100  C115  S    
C73   H33   S    
C62   H22   S    
C16   C116  S    
C41   C49   A    
C39   Br8   S    
C14   H62   S    
C28   C55   A    
N6    Ni4   S    
N10   Ni1   S    
C8    C88   A    
C29   C50   A    
C60   C92   A    
C101  C105  S    
N9    Ni2   S    
C20   C91   S    
C7    C87   A    
C50   C53   A    
C78   H38   S    
C57   H17   S    
C10   H58   S    
C74   C83   A    
C26   H14   S    
C14   C109  S    
C25   C54   A    
C6    H6    S    
C11   C119  S    
C18   C41   A    
C99   C116  S    
C112  C120  S    
C8    N8    A    
C27   C56   A    
C98   C113  S    
C5    N5    A    
C64   H24   S    
C27   C35   A    
C9    C106  S    
C14   C114  S    
C22   C37   A    
C2    N2    A    
C76   H36   S    
N15   N22   A    
C3    N3    A    
C13   C101  S    
C64   N16   A    
N8    Ni3   S    
C70   N22   A    
C1    N1    A    
N26   Ni5   S    
C80   C85   A    
C10   C118  S    
C75   H35   S    
N25   Ni6   S    
C80   N32   A    
N20   Ni6   S    
C4    C84   A    
C59   H19   S    
C99   C111  S    
C57   N9    A    
C74   N26   A    
C103  H55   S    
C68   C89   A    
N18   Ni6   S    
C67   C90   A    
C73   N25   A    
N7    N30   A    
N17   Ni5   S    
C58   C90   A    
C107  C115  S    
N2    N27   A    
C102  C117  S    
C109  H45   S    
C42   C50   A    
C72   C93   A    
N5    Ni3   S    
C111  C119  S    
N15   Ni3   S    
C60   N12   A    
C12   H60   S    
C30   C49   A    
C78   N30   A    
N30   Ni7   S    
C100  C112  S    
C15   C103  S    
C13   H61   S    
C16   C104  S    
C62   C94   A    
C108  C116  S    
C3    C83   A    
C29   C37   A    
C22   C93   S    
C15   C115  S    
C2    C82   A    
C11   H59   S    
C60   H20   S    
N8    N29   A    
N27   Ni6   S    
C65   H25   S    
C77   C88   A    
C26   C53   A    
C32   H12   S    
C20   C43   A    
C71   H31   S    
N31   Ni8   S    
C42   H65   S    
C47   C55   A    
C21   C46   A    
C59   C91   A    
C32   C51   A    
C61   H21   S    
C4    N4    A    
N4    Ni1   S    
C9    C97   S    
C23   C48   A    
N19   Ni5   S    
N3    Ni2   S    
C72   N24   A    
C28   H16   S    
C18   C89   S    
C15   C112  S    
C17   C90   S    
C107  H43   S    
C9    H57   S    
N11   Ni1   S    
N21   Ni7   S    
C76   C81   A    
C12   C107  S    
C103  C107  S    
C16   H64   S    
C75   C82   A    
C79   N31   A    
C66   C91   A    
C44   C52   A    
C106  H42   S    
C48   C56   A    
C102  H54   S    
C61   N13   A    
C10   C98   S    
C6    C86   A    
C69   N21   A    
N6    N31   A    
C88   C118  S    
C27   H15   S    
N2    Ni2   S    
C70   C95   A    
C97   H49   S    
C82   C116  S    
N9    N20   A    
C30   H10   S    
N16   Ni4   S    
C38   Br5   S    
C67   H27   S    
C110  H46   S    
C58   H18   S    
C37   Br6   S    
C69   H29   S    
C43   H68   S    
C43   C51   A    
C71   N23   A    
N29   Ni8   S    
N24   Ni8   S    
C31   C39   A    
C41   H66   S    
C102  C106  S    
C64   C96   A    
C105  H41   S    
C32   C40   A    
C7    N7    A    
C18   C33   A    
C1    H1    S    
C66   H26   S    
C12   C100  S    
C14   C102  S    
C44   H67   S    
N1    Ni1   S    
C98   H50   S    
C59   N11   A    
C45   H70   S    
N32   Ni7   S    
C22   C45   A    
C99   H51   S    
C28   C36   A    
C11   C108  S    
C17   C34   A    
C5    H5    S    
N14   Ni3   S    
C24   C95   S    
C77   N29   A    
C10   C105  S    
C86   C120  S    
C35   Br4   S    
C46   H69   S    
C30   C38   A    
C7    H7    S    
C97   C114  S    
C34   Br1   S    
N12   Ni2   S    
C62   N14   A    
C79   C86   A    
C13   C113  S    
C33   Br2   S    
C23   C40   A    
C16   C111  S    
C25   C33   A    
C63   H23   S    
C6    N6    A    
C68   N20   A    
