data_mof_unit_13559.cif
_audit_creation_date              2012-12-11T16:24:24-0500
_audit_creation_method            fapswitch 2.2
_symmetry_space_group_name_H-M    P1
_symmetry_Int_Tables_number       1
_space_group_crystal_system       triclinic
_cell_length_a                    14.742706
_cell_length_b                    14.752111
_cell_length_c                    33.313416
_cell_angle_alpha                 96.034211
_cell_angle_beta                  96.154018
_cell_angle_gamma                 61.263217
_cell_volume                      6304.31609331

loop_
_atom_site_label
_atom_site_type_symbol
_atom_type_description
_atom_site_fract_x
_atom_site_fract_y
_atom_site_fract_z
_atom_type_partial_charge
C1    C     C_R   0.391685 0.698605 0.445800 0.545413
C2    C     C_1   0.318176 0.342429 0.228893 -0.012218
C3    C     C_1   0.816920 0.477468 0.901027 0.212463
C4    C     C_3   0.609075 0.719666 0.705029 -0.299600
C5    C     C_1   0.540805 0.767573 0.607376 0.248124
C6    C     C_1   0.324880 0.346034 0.265177 -0.012968
C7    C     C_R   0.406063 0.386443 0.433960 0.544282
C8    C     C_R   0.289447 0.295212 0.101936 0.046253
C9    C     C_R   0.754009 0.375023 0.409652 0.023671
C10   C     C_R   0.785094 0.438334 0.392889 -0.130278
C11   C     C_R   0.810634 0.420183 0.352791 -0.122132
C12   C     C_R   0.806104 0.338059 0.328843 0.035911
C13   C     C_R   0.784579 0.269003 0.346700 -0.120732
C14   C     C_R   0.758642 0.287388 0.386839 -0.131114
C15   C     C_R   0.334665 0.349540 0.308396 0.041095
C16   C     C_R   0.822247 0.321422 0.203560 0.349022
C17   C     C_R   0.815198 0.330081 0.284924 0.347317
C18   C     C_R   0.836553 0.394384 0.142033 -0.126813
C19   C     C_R   0.700518 0.410197 0.447468 0.544269
C20   C     C_R   0.869748 0.379852 0.103298 -0.143384
C21   C     C_R   0.892361 0.204622 0.097886 -0.024974
C22   C     C_R   0.858754 0.220199 0.136934 -0.126110
C23   C     C_R   0.836046 0.312940 0.159973 0.019783
C24   C     C_R   0.903901 0.283331 0.081553 0.006371
C25   C     C_R   0.376349 0.747266 0.407496 -0.008461
C26   C     C_R   0.415448 0.266408 0.328154 -0.107445
C27   C     C_R   0.285060 0.774333 0.382927 -0.143165
C28   C     C_R   0.281017 0.794301 0.342726 -0.147550
C29   C     C_R   0.368189 0.787060 0.326169 0.046500
C30   C     C_R   0.458926 0.766449 0.351332 0.145910
C31   C     C_R   0.393491 0.701671 0.561330 0.540182
C32   C     C_R   0.460887 0.748436 0.392104 -0.102005
C33   C     C_R   0.356284 0.810589 0.201408 0.342921
C34   C     C_R   0.363708 0.796518 0.282295 0.345465
C35   C     C_R   0.262619 0.824210 0.133631 -0.117452
C36   C     C_R   0.239294 0.859895 0.094858 -0.123704
C37   C     C_R   0.433720 0.274881 0.369966 -0.123551
C38   C     C_R   0.386879 0.891991 0.102579 -0.131211
C39   C     C_R   0.409715 0.857157 0.141513 -0.120137
C40   C     C_R   0.344948 0.827430 0.158008 0.035444
C41   C     C_R   0.298310 0.898778 0.079786 0.021353
C42   C     C_R   0.371785 0.369495 0.585283 0.021510
C43   C     C_R   0.407405 0.388931 0.549068 0.545389
C44   C     C_R   0.285728 0.449303 0.604277 -0.130929
C45   C     C_R   0.266764 0.440117 0.643370 -0.121300
C46   C     C_R   0.333646 0.351067 0.664037 0.033715
C47   C     C_R   0.414019 0.267766 0.643641 -0.118643
C48   C     C_R   0.398301 0.278895 0.163988 -0.096936
C49   C     C_R   0.432834 0.276827 0.604588 -0.127612
C50   C     C_R   0.318919 0.347811 0.788555 0.346018
C51   C     C_R   0.325901 0.348215 0.707546 0.346149
C52   C     C_R   0.218678 0.403227 0.850487 -0.120295
C53   C     C_R   0.207431 0.383692 0.889219 -0.129370
C54   C     C_R   0.386339 0.248573 0.892889 -0.127772
C55   C     C_R   0.701111 0.413782 0.562731 0.541227
C56   C     C_R   0.397525 0.268022 0.854241 -0.120021
C57   C     C_R   0.312430 0.342118 0.831952 0.033308
C58   C     C_R   0.289813 0.302787 0.909914 0.021371
C59   C     C_R   0.389211 0.257520 0.122110 0.129233
C60   C     C_R   0.753256 0.381408 0.603046 0.019012
C61   C     C_R   0.777676 0.448765 0.629409 -0.128374
C62   C     C_R   0.805694 0.428966 0.670205 -0.117796
C63   C     C_R   0.810000 0.341648 0.685034 0.040915
C64   C     C_R   0.791839 0.271079 0.658634 -0.109241
C65   C     C_R   0.763882 0.290598 0.617827 -0.124875
C66   C     C_R   0.907985 0.208413 0.821147 -0.115458
C67   C     C_R   0.371468 0.367041 0.392318 0.020253
C68   C     C_R   0.934954 0.197056 0.862400 -0.139192
C69   C     C_R   0.850477 0.384433 0.874688 -0.017585
C70   C     C_R   0.201562 0.358647 0.123941 -0.158967
C71   C     C_R   0.823678 0.394849 0.833148 -0.113422
C72   C     C_R   0.855121 0.307097 0.806377 0.026946
C73   C     C_1   0.838731 0.318249 0.763556 -0.020085
C74   C     C_1   0.826380 0.328110 0.727688 -0.022000
C75   C     C_R   0.910383 0.284386 0.889555 0.005384
C76   C     C_R   0.376136 0.755450 0.602357 -0.029015
C77   C     C_R   0.287056 0.773787 0.620956 -0.149238
C78   C     C_R   0.277364 0.801839 0.662031 -0.143191
C79   C     C_R   0.285929 0.447343 0.372451 -0.125857
C80   C     C_R   0.356178 0.812377 0.685577 0.032916
C81   C     C_R   0.211625 0.377756 0.165499 -0.121815
C82   C     C_R   0.443274 0.801491 0.667488 0.143601
C83   C     C_R   0.452461 0.774887 0.625592 0.004824
C84   C     C_R   0.396648 0.882426 0.832865 -0.109282
C85   C     C_R   0.376938 0.910976 0.873587 -0.120373
C86   C     C_R   0.229084 0.878937 0.863603 -0.128052
C87   C     C_R   0.249053 0.850360 0.822941 -0.111399
C88   C     C_R   0.330984 0.854918 0.807337 0.039129
C89   C     C_1   0.342414 0.839074 0.764636 -0.027673
C90   C     C_1   0.349268 0.827530 0.728648 -0.023120
C91   C     C_R   0.267947 0.438654 0.330620 -0.108569
C92   C     C_R   0.309593 0.335325 0.185658 0.016033
C93   C     C_R   0.290795 0.912852 0.889037 0.019801
C94   C     C_R   0.963047 0.264220 0.045550 0.541415
C95   C     C_R   0.272720 0.259666 0.060002 0.563101
C96   C     C_R   0.259374 0.959102 0.043574 0.544235
C97   C     C_R   0.962036 0.267824 0.930829 0.541311
C98   C     C_R   0.270869 0.264010 0.945352 0.545144
C99   C     C_R   0.256229 0.964812 0.929036 0.540500
C100  C     C_3   0.533663 0.089430 0.107605 -0.280079
C101  C     C_1   0.918743 0.105445 0.076638 0.216332
C102  C     C_3   0.631391 0.761135 0.360385 -0.303328
Cr1   Cr    Cr6+3 0.576280 0.580550 0.506370 1.041575
Cr2   Cr    Cr6+3 0.346780 0.572400 0.496520 1.014486
Cr3   Cr    Cr6+3 0.576960 0.347070 0.497150 1.014487
Cr4   Cr    Cr6+3 0.087320 0.083240 0.984860 1.047405
Cr5   Cr    Cr6+3 0.087720 0.316210 0.996740 1.034334
Cr6   Cr    Cr6+3 0.317350 0.090340 0.995890 1.024099
H1    H     H_    0.735626 0.236860 0.399060 0.129228
H2    H     H_    0.474372 0.247819 0.179800 0.119069
H3    H     H_    0.210421 0.811749 0.324055 0.139043
H4    H     H_    0.212108 0.800368 0.145316 0.141445
H5    H     H_    0.434994 0.919331 0.091336 0.118393
H6    H     H_    0.475070 0.858361 0.159338 0.132933
H7    H     H_    0.236910 0.521507 0.590048 0.129660
H8    H     H_    0.499069 0.213549 0.590554 0.134826
H9    H     H_    0.132197 0.427188 0.901698 0.139841
H10   H     H_    0.203454 0.505147 0.658162 0.133490
H11   H     H_    0.465651 0.197261 0.658510 0.138749
H12   H     H_    0.874651 0.442883 0.091460 0.140811
H13   H     H_    0.467068 0.196913 0.311060 0.119720
H14   H     H_    0.152065 0.461748 0.834218 0.136380
H15   H     H_    0.451620 0.186671 0.908359 0.134813
H16   H     H_    0.471464 0.221127 0.841077 0.135952
H17   H     H_    0.980948 0.119382 0.872605 0.137408
H18   H     H_    0.932136 0.140062 0.800587 0.117328
H19   H     H_    0.795313 0.203095 0.669877 0.114679
H20   H     H_    0.745344 0.237341 0.598388 0.128820
H21   H     H_    0.769783 0.519558 0.619073 0.144238
H22   H     H_    0.781042 0.471359 0.821497 0.113649
H23   H     H_    0.828933 0.473628 0.340082 0.131784
H24   H     H_    0.500133 0.211725 0.384366 0.129689
H25   H     H_    0.819964 0.483857 0.690473 0.110505
H26   H     H_    0.425727 0.936959 0.892337 0.133488
H27   H     H_    0.460381 0.885955 0.820953 0.113827
H28   H     H_    0.226601 0.761029 0.604233 0.142868
H29   H     H_    0.197995 0.828894 0.803318 0.115393
H30   H     H_    0.162169 0.879612 0.874537 0.130905
H31   H     H_    0.209940 0.810871 0.675838 0.121088
H32   H     H_    0.236701 0.519365 0.388775 0.129020
H33   H     H_    0.142622 0.421988 0.182147 0.128150
H34   H     H_    0.781822 0.204235 0.329108 0.134023
H35   H     H_    0.124047 0.388532 0.109514 0.140777
H36   H     H_    0.204913 0.503142 0.315450 0.117375
H37   H     H_    0.783343 0.505843 0.409888 0.125719
H38   H     H_    0.529819 0.230250 0.104608 0.250189
H39   H     H_    0.567179 0.076931 0.139309 0.126722
H40   H     H_    0.597499 0.048196 0.086889 0.150297
H41   H     H_    0.479704 0.056292 0.101638 0.168935
H42   H     H_    0.575978 0.697147 0.311036 0.271752
H43   H     H_    0.685063 0.768525 0.341614 0.154738
H44   H     H_    0.676406 0.690107 0.377360 0.125689
H45   H     H_    0.816703 0.467905 0.158686 0.139883
H46   H     H_    0.598298 0.830813 0.381635 0.156204
H47   H     H_    0.496339 0.872416 0.714196 0.258491
H48   H     H_    0.582994 0.684416 0.726055 0.145784
H49   H     H_    0.669870 0.736223 0.721204 0.145699
H50   H     H_    0.643567 0.663721 0.678981 0.159270
H51   H     H_    0.855680 0.157597 0.150067 0.136652
H52   H     H_    0.218673 0.774342 0.394059 0.136988
H53   H     H_    0.531508 0.726609 0.411123 0.135215
H54   H     H_    0.171371 0.862728 0.077710 0.155270
N1    N     N_R   0.819771 0.403436 0.226992 -0.231662
N2    N     N_R   0.420327 0.833047 0.266739 -0.196229
N3    N     N_R   0.416657 0.839994 0.227073 -0.232461
N4    N     N_R   0.240358 0.422904 0.766904 -0.234565
N5    N     N_2   0.480140 0.198724 0.100582 -0.496442
N6    N     N_1   0.939752 0.025895 0.059717 -0.297224
N7    N     N_2   0.549840 0.753627 0.334324 -0.494180
N8    N     N_1   0.789920 0.552109 0.922095 -0.291980
N9    N     N_2   0.522866 0.814945 0.691275 -0.511270
N10   N     N_1   0.611545 0.761788 0.592936 -0.298856
N11   N     N_R   0.244120 0.423501 0.727189 -0.234683
N12   N     N_R   0.404253 0.273286 0.729233 -0.232803
N13   N     N_R   0.400678 0.272910 0.768883 -0.233758
N14   N     N_R   0.815918 0.407871 0.266833 -0.234892
N15   N     N_R   0.816978 0.248231 0.261515 -0.231980
N16   N     N_R   0.821115 0.243666 0.221609 -0.232898
N17   N     N_R   0.299258 0.774529 0.216988 -0.230282
N18   N     N_R   0.303192 0.767282 0.256643 -0.234781
O1    O     O_R   0.679450 0.499830 0.463150 -0.519908
O2    O     O_R   0.340240 0.172500 0.045430 -0.483946
O3    O     O_R   0.309670 0.000990 0.032050 -0.507935
O4    O     O_R   0.480650 0.664000 0.464630 -0.503677
O5    O     O_R   0.168330 0.982130 0.939200 -0.520023
O6    O     O_R   0.000140 0.178170 0.944610 -0.504063
O7    O     O_R   0.983010 0.336750 0.948660 -0.495818
O8    O     O_R   0.181800 0.312190 0.959860 -0.500610
O9    O     O_R   0.338500 0.175680 0.956950 -0.517142
O10   O     O_R   0.308050 0.003930 0.950020 -0.501730
O11   O     O_3   0.164130 0.163270 0.992500 -0.249363
O12   O     O_R   0.356040 0.477400 0.534170 -0.502663
O13   O     O_R   0.323930 0.675950 0.455370 -0.516289
O14   O     O_R   0.354700 0.475360 0.451930 -0.502236
O15   O     O_R   0.494470 0.320860 0.448390 -0.519106
O16   O     O_R   0.662580 0.357570 0.460050 -0.502821
O17   O     O_R   0.680900 0.502040 0.551870 -0.504764
O18   O     O_R   0.481990 0.666040 0.546870 -0.484655
O19   O     O_R   0.325370 0.678160 0.544080 -0.519072
O20   O     O_R   0.495910 0.323070 0.537100 -0.518488
O21   O     O_R   0.663920 0.359620 0.542290 -0.503680
O22   O     O_3   0.500010 0.500010 0.500010 -0.241165
O23   O     O_R   0.170070 0.978950 0.027680 -0.499281
O24   O     O_R   0.001760 0.175230 0.026640 -0.480761
O25   O     O_R   0.984760 0.333570 0.037150 -0.520777
O26   O     O_R   0.183410 0.309240 0.041890 -0.512986

loop_
_geom_bond_atom_site_label_1
_geom_bond_atom_site_label_2
_ccdc_geom_bond_type
C45   H10   S    
Cr3   O16   S    
C66   C68   A    
H38   N5    S    
C84   H27   S    
C4    N9    S    
C33   N17   A    
C102  H44   S    
C73   C74   T    
C93   C99   S    
C48   H2    S    
C35   C36   A    
C58   C98   S    
C20   H12   S    
C54   H15   S    
C78   H31   S    
C19   O1    A    
C31   O19   A    
Cr3   O22   S    
C47   C49   A    
C77   C78   A    
C52   C53   A    
C68   C75   A    
Cr4   O24   S    
C94   O25   A    
C70   H35   S    
C62   C63   A    
C42   C44   A    
C96   O23   A    
C100  N5    S    
C56   H16   S    
C62   H25   S    
N2    N3    A    
C3    C69   S    
C100  H40   S    
C14   H1    S    
C34   N2    A    
C8    C59   A    
C38   C39   A    
C5    C83   S    
C53   H9    S    
C41   C96   S    
C22   H51   S    
C100  H39   S    
Cr2   O12   S    
Cr5   O7    S    
C75   C97   S    
C51   N12   A    
C56   C57   A    
C18   C20   A    
C51   N11   A    
Cr1   O17   S    
C69   C71   A    
C70   C81   A    
N12   N13   A    
Cr5   O26   S    
C98   O8    A    
C13   C14   A    
Cr4   O23   S    
C82   N9    S    
C81   C92   A    
C34   N18   A    
C9    C19   S    
Cr3   O20   S    
C66   C72   A    
C20   C24   A    
C44   H7    S    
C12   C17   S    
C50   N4    A    
Cr2   O13   S    
Cr6   O11   S    
C43   O20   A    
C26   H13   S    
C66   H18   S    
C9    C10   A    
C102  H46   S    
C79   C91   A    
C17   N14   A    
C61   H21   S    
C102  H43   S    
C21   C101  S    
C39   H6    S    
C95   O26   A    
C47   H11   S    
C79   H32   S    
C6    C15   S    
C19   O16   A    
C16   N1    A    
C21   C22   A    
C36   H54   S    
Cr6   O10   S    
C36   C41   A    
C2    C6    T    
C8    C95   S    
C85   C93   A    
Cr4   O11   S    
C87   H29   S    
C98   O9    A    
N1    N14   A    
C76   C83   A    
C1    O4    A    
C16   N16   A    
C28   H3    S    
C97   O6    A    
C54   C56   A    
C33   C40   S    
C63   C64   A    
Cr1   O4    S    
C65   H20   S    
C67   C79   A    
C84   C85   A    
Cr4   O6    S    
C38   C41   A    
C80   C82   A    
C10   C11   A    
C39   C40   A    
C38   H5    S    
C86   C87   A    
C15   C26   A    
C10   H37   S    
C27   H52   S    
C45   C46   A    
C7    C67   S    
Cr5   O8    S    
C18   C23   A    
C50   N13   A    
Cr1   O18   S    
Cr2   O22   S    
C101  N6    T    
C1    O13   A    
C9    C14   A    
C29   C34   S    
C30   N7    S    
C29   C30   A    
C86   C93   A    
C24   C94   S    
Cr3   O21   S    
C4    H49   S    
C53   C58   A    
C64   H19   S    
C32   H53   S    
C3    N8    T    
C13   H34   S    
C76   C77   A    
C7    O14   A    
C2    C92   S    
C18   H45   S    
C77   H28   S    
C43   O12   A    
N15   N16   A    
C16   C23   S    
Cr2   O19   S    
Cr6   O9    S    
C94   O24   A    
C42   C43   S    
C96   O3    A    
C7    O15   A    
C99   O5    A    
C59   N5    S    
C44   C45   A    
C48   C59   A    
C91   H36   S    
C54   C58   A    
C17   N15   A    
Cr3   O15   S    
C97   O7    A    
C46   C47   A    
C28   C29   A    
N4    N11   A    
Cr6   O3    S    
C4    H48   S    
Cr1   O1    S    
C50   C57   S    
C33   N3    A    
C84   C88   A    
Cr4   O5    S    
C72   C73   S    
C11   H23   S    
C60   C65   A    
C99   O10   A    
C52   H14   S    
C11   C12   A    
C1    C25   S    
C26   C37   A    
C63   C74   S    
C100  H41   S    
C25   C27   A    
C85   H26   S    
C8    C70   A    
C37   H24   S    
Cr6   O2    S    
C64   C65   A    
C35   C40   A    
Cr1   O22   S    
C71   C72   A    
C71   H22   S    
C30   C32   A    
C31   C76   S    
C55   O17   A    
C102  N7    S    
C37   C67   A    
C81   H33   S    
C5    N10   T    
C69   C75   A    
C78   C80   A    
C31   O18   A    
C46   C51   S    
C80   C90   S    
C61   C62   A    
Cr5   O25   S    
C52   C57   A    
C86   H30   S    
C42   C49   A    
C15   C91   A    
N17   N18   A    
H42   N7    S    
H47   N9    S    
C49   H8    S    
C88   C89   S    
C87   C88   A    
C82   C83   A    
C48   C92   A    
C21   C24   A    
Cr5   O11   S    
C27   C28   A    
Cr2   O14   S    
C22   C23   A    
C60   C61   A    
C12   C13   A    
C89   C90   T    
C55   C60   S    
C68   H17   S    
C95   O2    A    
C35   H4    S    
C4    H50   S    
C25   C32   A    
C55   O21   A    
