data_mof_unit_21140.cif
_audit_creation_date              2012-12-11T14:13:21-0500
_audit_creation_method            fapswitch 2.2
_symmetry_space_group_name_H-M    P1
_symmetry_Int_Tables_number       1
_space_group_crystal_system       triclinic
_cell_length_a                    11.60563
_cell_length_b                    18.441462
_cell_length_c                    10.103498
_cell_angle_alpha                 89.999981
_cell_angle_beta                  110.460215
_cell_angle_gamma                 89.99988
_cell_volume                      2025.98434665

loop_
_atom_site_label
_atom_site_type_symbol
_atom_type_description
_atom_site_fract_x
_atom_site_fract_y
_atom_site_fract_z
_atom_type_partial_charge
C1    C     C_R   0.077629 0.644981 0.143369 0.613641
C2    C     C_2   0.599232 0.070690 0.077412 0.022681
C3    C     C_2   0.599229 0.429310 0.077413 0.022698
C4    C     C_2   0.362371 0.557536 0.996692 0.064947
C5    C     C_2   0.453451 0.978017 0.096199 -0.097251
C6    C     C_2   0.486780 0.053645 0.077776 -0.141727
C7    C     C_2   0.486776 0.446354 0.077775 -0.141714
C8    C     C_2   0.453444 0.521981 0.096199 -0.097268
C9    C     C_2   0.040071 0.929881 0.132973 -0.058154
C10   C     C_2   0.960130 0.069960 0.866436 -0.031267
C11   C     C_2   0.960162 0.430033 0.866447 -0.031220
C12   C     C_R   0.922238 0.355117 0.856469 0.625041
C13   C     C_2   0.040105 0.570111 0.132985 -0.058191
C14   C     C_2   0.985932 0.961186 0.009062 0.236732
C15   C     C_2   0.013538 0.038626 0.990391 0.240436
C16   C     C_2   0.013559 0.461363 0.990408 0.240434
C17   C     C_2   0.985954 0.538803 0.009080 0.236740
C18   C     C_R   0.471392 0.647776 0.444284 0.511439
C19   C     C_R   0.528774 0.352301 0.555886 0.522308
C20   C     C_R   0.528772 0.147701 0.555882 0.522310
C21   C     C_R   0.471390 0.852225 0.444280 0.511470
C22   C     C_R   0.351279 0.637318 0.009341 0.532153
C23   C     C_R   0.922231 0.144880 0.856467 0.625022
C24   C     C_R   0.624161 0.356021 0.035982 0.514972
C25   C     C_R   0.624162 0.143978 0.035982 0.514969
C26   C     C_R   0.351282 0.862683 0.009338 0.532205
C27   C     C_R   0.500218 0.424218 0.489284 -0.019528
C28   C     C_R   0.500555 0.575990 0.511531 -0.011300
C29   C     C_R   0.500546 0.924015 0.511514 -0.011143
C30   C     C_R   0.500212 0.075787 0.489269 -0.019550
C31   C     C_R   0.286203 0.422826 0.486177 0.036658
C32   C     C_R   0.713671 0.577696 0.511784 0.013305
C33   C     C_R   0.713663 0.922309 0.511764 0.013303
C34   C     C_R   0.077622 0.855016 0.143367 0.613540
C35   C     C_R   0.286195 0.077183 0.486153 0.036673
C36   C     C_R   0.186275 0.458613 0.502355 -0.047714
C37   C     C_R   0.811790 0.542715 0.489997 -0.086869
C38   C     C_R   0.811781 0.957290 0.489977 -0.086869
C39   C     C_R   0.186265 0.041398 0.502327 -0.047703
C40   C     C_R   0.195904 0.531429 0.538410 -0.099870
C41   C     C_R   0.802058 0.470010 0.453406 -0.119794
C42   C     C_R   0.802050 0.029996 0.453390 -0.119813
C43   C     C_R   0.195889 0.968581 0.538380 -0.099878
C44   C     C_R   0.305658 0.568011 0.560549 -0.039481
C45   C     C_R   0.396252 0.460400 0.499820 0.050105
C46   C     C_R   0.694344 0.432383 0.438121 -0.073294
C47   C     C_R   0.694336 0.067622 0.438105 -0.073311
C48   C     C_R   0.305642 0.931996 0.560518 -0.039412
C49   C     C_R   0.402317 0.535289 0.526793 0.022972
C50   C     C_R   0.598558 0.464902 0.474012 0.005134
C51   C     C_R   0.598550 0.035103 0.473995 0.005089
C52   C     C_R   0.402305 0.964717 0.526768 0.023020
C53   C     C_2   0.700878 0.016214 0.108340 0.591568
C54   C     C_2   0.268052 0.981719 0.878548 0.588869
C55   C     C_2   0.268020 0.518281 0.878567 0.588826
C56   C     C_R   0.604470 0.539841 0.500641 0.035300
C57   C     C_2   0.700875 0.483786 0.108344 0.591594
C58   C     C_R   0.604461 0.960164 0.500623 0.035297
C59   C     C_R   0.396243 0.039606 0.499798 0.050103
C60   C     C_2   0.362383 0.942463 0.996686 0.065027
Cr1   Cr    Cr6+3 0.187610 0.750000 0.979860 1.161056
Cr2   Cr    Cr6+3 0.812390 0.250000 0.020140 1.177445
Cr3   Cr    Cr6+3 0.245810 0.750000 0.341640 1.018255
Cr4   Cr    Cr6+3 0.754190 0.250000 0.658360 1.029253
Cr5   Cr    Cr6+3 0.485760 0.750000 0.219910 1.065405
Cr6   Cr    Cr6+3 0.514240 0.250000 0.780090 1.086220
H1    H     H_    0.101824 0.429610 0.488351 0.135133
H2    H     H_    0.725409 0.634200 0.542592 0.173491
H3    H     H_    0.725406 0.865806 0.542578 0.173454
H4    H     H_    0.274643 0.133735 0.455654 0.162080
H5    H     H_    0.313034 0.622488 0.602347 0.153918
H6    H     H_    0.686951 0.377719 0.397250 0.139469
H7    H     H_    0.686943 0.122287 0.397238 0.139475
H8    H     H_    0.313015 0.877520 0.602319 0.153950
H9    H     H_    0.416046 0.095194 0.053628 0.194994
H10   H     H_    0.515665 0.948086 0.185130 0.163099
H11   H     H_    0.515663 0.551913 0.185126 0.163132
H12   H     H_    0.895019 0.572280 0.500483 0.133897
H13   H     H_    0.416046 0.404803 0.053634 0.195004
H14   H     H_    0.916066 0.037894 0.772407 0.124319
H15   H     H_    0.083380 0.961987 0.227093 0.126226
H16   H     H_    0.083433 0.538009 0.227104 0.126243
H17   H     H_    0.916115 0.462103 0.772419 0.124314
H18   H     H_    0.879953 0.997019 0.210306 0.320991
H19   H     H_    0.092078 0.986374 0.746898 0.318308
H20   H     H_    0.092049 0.513656 0.746899 0.318284
H21   H     H_    0.879952 0.502983 0.210294 0.321015
H22   H     H_    0.247898 0.179847 0.124181 0.350237
H23   H     H_    0.895011 0.927725 0.500461 0.133933
H24   H     H_    0.750677 0.820107 0.878223 0.365754
H25   H     H_    0.749608 0.679247 0.878842 0.365866
H26   H     H_    0.247887 0.320129 0.124217 0.350250
H27   H     H_    0.101815 0.070403 0.488324 0.135119
H28   H     H_    0.118894 0.559696 0.551022 0.124286
H29   H     H_    0.877646 0.442702 0.435352 0.148215
H30   H     H_    0.877640 0.057305 0.435342 0.148217
H31   H     H_    0.118879 0.940316 0.550997 0.124279
H32   H     H_    0.274645 0.366274 0.455672 0.162102
O1    O     O_R   0.267710 0.668200 0.902110 -0.467257
O2    O     O_R   0.883280 0.330790 0.732340 -0.530008
O3    O     O_R   0.883280 0.169210 0.732340 -0.530010
O4    O     O_R   0.116720 0.830790 0.267660 -0.529413
O5    O     O_R   0.366710 0.675440 0.427590 -0.512696
O6    O     O_R   0.633290 0.324560 0.572410 -0.515776
O7    O     O_R   0.633290 0.175440 0.572410 -0.515781
O8    O     O_R   0.366710 0.824560 0.427590 -0.512703
O9    O     O_R   0.534870 0.669390 0.371760 -0.534301
O10   O     O_R   0.465130 0.330610 0.628240 -0.507004
O11   O     O_R   0.465130 0.169390 0.628240 -0.506988
O12   O     O_R   0.732290 0.331800 0.097890 -0.472438
O13   O     O_R   0.534870 0.830610 0.371760 -0.534320
O14   O     O_R   0.453080 0.674480 0.075160 -0.475336
O15   O     O_R   0.546920 0.325520 0.924840 -0.486004
O16   O     O_R   0.546920 0.174480 0.924840 -0.485993
O17   O     O_R   0.453080 0.825520 0.075160 -0.475226
O18   O     O_3   0.306390 0.750000 0.180470 -0.330889
O19   O     O_3   0.693610 0.250000 0.819530 -0.288268
O20   O     O_2   0.679423 0.952135 0.078789 -0.461582
O21   O     O_R   0.822466 0.039008 0.170582 -0.667701
O22   O     O_2   0.293571 0.037546 0.829601 -0.511788
O23   O     O_R   0.732290 0.168200 0.097890 -0.472447
O24   O     O_R   0.148777 0.954204 0.823122 -0.665292
O25   O     O_2   0.293508 0.462435 0.829647 -0.511800
O26   O     O_R   0.148762 0.545820 0.823121 -0.665326
O27   O     O_2   0.679417 0.547865 0.078796 -0.462070
O28   O     O_R   0.822464 0.460993 0.170584 -0.667649
O29   O     O_2   0.077563 0.117091 0.226624 -0.301075
O30   O     O_2   0.238506 0.040356 0.190985 -0.383849
O31   O     O_3   0.177813 0.158794 0.046594 -0.501893
O32   O     O_2   0.759264 0.960276 0.811319 -0.320231
O33   O     O_2   0.917316 0.882512 0.772083 -0.303170
O34   O     O_R   0.267710 0.831800 0.902110 -0.467255
O35   O     O_3   0.820513 0.841700 0.955467 -0.470699
O36   O     O_2   0.917261 0.617509 0.772119 -0.302665
O37   O     O_2   0.759287 0.539679 0.811354 -0.320759
O38   O     O_3   0.820477 0.658255 0.955554 -0.471338
O39   O     O_2   0.238526 0.459613 0.190997 -0.383863
O40   O     O_2   0.077549 0.382921 0.226668 -0.301080
O41   O     O_3   0.177779 0.341163 0.046653 -0.501902
O42   O     O_R   0.099480 0.674460 0.038850 -0.430724
O43   O     O_R   0.900520 0.325540 0.961150 -0.413666
O44   O     O_R   0.900520 0.174460 0.961150 -0.413678
O45   O     O_R   0.099480 0.825540 0.038850 -0.430815
O46   O     O_R   0.116720 0.669210 0.267660 -0.529430
S1    S     S_3+6 0.130082 0.088584 0.120565 -0.036197
S2    S     S_3+6 0.867563 0.911604 0.880060 0.002879
S3    S     S_3+6 0.867552 0.588377 0.880102 0.002725
S4    S     S_3+6 0.130080 0.411398 0.120596 -0.036194

loop_
_geom_bond_atom_site_label_1
_geom_bond_atom_site_label_2
_ccdc_geom_bond_type
C44   C49   A    
C30   C51   A    
C33   C58   A    
Cr6   O15   S    
C54   O22   D    
O32   S2    D    
O39   S4    D    
C4    C8    D    
C28   C56   A    
C36   H1    S    
C7    C8    S    
C54   C60   S    
O36   S3    D    
C38   H23   S    
C34   O4    A    
C44   H5    S    
C42   H30   S    
C17   S3    S    
C38   C42   A    
C3    C7    D    
C10   C15   D    
C57   O27   D    
C5    C6    S    
O30   S1    D    
C23   O3    A    
C12   O43   A    
O33   S2    D    
C35   C59   A    
C28   C49   A    
C31   H32   S    
C26   O17   A    
C39   H27   S    
Cr2   O19   S    
Cr1   O34   S    
C18   O9    A    
Cr1   O45   S    
Cr5   O13   S    
H25   O38   S    
C35   H4    S    
O40   S4    D    
C16   C17   S    
Cr6   O19   S    
C41   C46   A    
C23   O44   A    
C19   C27   S    
C43   C48   A    
C40   C44   A    
O31   S1    S    
C21   O8    A    
C27   C50   A    
C33   H3    S    
C32   H2    S    
C19   O10   A    
C27   C45   A    
C54   O24   S    
C24   O15   A    
Cr5   O17   S    
C3    C24   S    
Cr1   O1    S    
H22   O31   S    
Cr2   O44   S    
Cr3   O4    S    
C21   O13   A    
Cr4   O3    S    
C34   O45   A    
C55   O25   D    
O41   S4    S    
C48   H8    S    
C6    H9    S    
C18   C28   S    
C47   H7    S    
Cr3   O5    S    
Cr6   O10   S    
C57   O28   S    
C15   S1    S    
H24   O35   S    
C10   H14   S    
C53   O20   D    
C39   C43   A    
C11   H17   S    
C21   C29   S    
C13   H16   S    
C2    C53   S    
C50   C56   A    
Cr4   O19   S    
C2    C6    D    
C35   C39   A    
C9    C14   D    
Cr5   O14   S    
C52   C59   A    
C4    C22   S    
C11   C16   D    
Cr2   O12   S    
C45   C49   A    
Cr3   O46   S    
C30   C59   A    
Cr1   O18   S    
C24   O12   A    
H19   O24   S    
C51   C58   A    
C32   C37   A    
Cr3   O8    S    
C1    O42   A    
O29   S1    D    
Cr3   O18   S    
C3    C57   S    
C22   O14   A    
C4    C55   S    
H20   O26   S    
C8    H11   S    
Cr5   O18   S    
C1    C13   S    
Cr2   O43   S    
C36   C40   A    
C26   O34   A    
C7    H13   S    
C20   O7    A    
Cr4   O6    S    
C14   S2    S    
C55   O26   S    
C22   O1    A    
Cr6   O16   S    
C5    C60   D    
Cr4   O7    S    
C31   C36   A    
C46   H6    S    
C43   H31   S    
C40   H28   S    
C19   O6    A    
C47   C51   A    
C11   C12   S    
C53   O21   S    
Cr1   O42   S    
C10   C23   S    
C37   H12   S    
C46   C50   A    
O37   S3    D    
C33   C38   A    
C13   C17   D    
C16   S4    S    
C5    H10   S    
Cr4   O2    S    
C1    O46   A    
C25   O16   A    
C20   C30   S    
C18   O5    A    
C41   H29   S    
C25   O23   A    
H18   O21   S    
C32   C56   A    
C9    C34   S    
C2    C25   S    
C42   C47   A    
H21   O28   S    
Cr6   O11   S    
C37   C41   A    
C12   O2    A    
O38   S3    S    
C20   O11   A    
C48   C52   A    
C29   C58   A    
C31   C45   A    
C14   C15   S    
O35   S2    S    
H26   O41   S    
C26   C60   S    
Cr5   O9    S    
Cr2   O23   S    
C9    H15   S    
C29   C52   A    
