data_mof_unit_60630.cif
_audit_creation_date              2012-12-10T20:53:51-0500
_audit_creation_method            fapswitch 2.2
_symmetry_space_group_name_H-M    P1
_symmetry_Int_Tables_number       1
_space_group_crystal_system       triclinic
_cell_length_a                    10.837723
_cell_length_b                    15.850527
_cell_length_c                    15.085099
_cell_angle_alpha                 90.003616
_cell_angle_beta                  103.966788
_cell_angle_gamma                 89.976742
_cell_volume                      2514.76084151

loop_
_atom_site_label
_atom_site_type_symbol
_atom_type_description
_atom_site_fract_x
_atom_site_fract_y
_atom_site_fract_z
_atom_type_partial_charge
C1    C     C_R   0.500042 0.338877 0.499984 0.905007
C2    C     C_R   0.499958 0.661121 0.500015 0.911796
C3    C     C_R   0.386635 0.492092 0.932774 -0.224646
C4    C     C_R   0.613370 0.507841 0.067227 -0.224729
C5    C     C_R   0.501278 0.500053 0.905216 -0.021334
C6    C     C_R   0.498725 0.499890 0.094785 -0.021407
C7    C     C_R   0.615269 0.507964 0.973851 0.193747
C8    C     C_R   0.384736 0.491966 0.026150 0.193786
C9    C     C_1   0.500443 0.500001 0.807181 0.125925
C10   C     C_1   0.499558 0.499973 0.192819 0.125924
C11   C     C_R   0.258546 0.497795 0.462268 0.944693
C12   C     C_R   0.741456 0.497770 0.537732 0.944881
C13   C     C_2   0.122570 0.488769 0.440519 -0.355040
C14   C     C_2   0.877443 0.488753 0.559482 -0.355507
C15   C     C_2   0.067727 0.472662 0.508577 -0.149600
C16   C     C_2   0.932310 0.472649 0.491427 -0.149827
C17   C     C_R   0.500816 0.956273 0.580843 -0.173747
C18   C     C_R   0.499182 0.043732 0.419156 -0.173881
C19   C     C_R   0.499975 0.913148 0.500008 0.164771
C20   C     C_R   0.500023 0.086856 0.499991 0.164732
C21   C     C_R   0.499159 0.956245 0.419165 -0.174424
C22   C     C_R   0.500840 0.043761 0.580835 -0.174556
C23   C     C_1   0.499960 0.824362 0.500017 -0.062572
C24   C     C_1   0.500039 0.175642 0.499983 -0.063246
C25   C     C_1   0.500045 0.250479 0.499981 -0.164141
C26   C     C_1   0.499954 0.749523 0.500019 -0.166379
H1    H     H_    0.877583 0.465513 0.421138 0.192244
H2    H     H_    0.122464 0.465540 0.578867 0.191960
H3    H     H_    0.932404 0.496152 0.629593 0.166528
H4    H     H_    0.067600 0.496154 0.370405 0.166400
H5    H     H_    0.501488 0.077682 0.643334 0.149699
H6    H     H_    0.498510 0.922324 0.356665 0.149856
H7    H     H_    0.501449 0.922375 0.643350 0.150209
H8    H     H_    0.498549 0.077631 0.356650 0.150052
H9    H     H_    0.297881 0.485926 0.881501 0.170115
H10   H     H_    0.702125 0.514002 0.118499 0.170350
N1    N     N_1   0.499960 0.500020 0.270540 -0.082505
N2    N     N_1   0.500040 0.499980 0.729460 -0.082508
O1    O     O_R   0.500000 0.378020 0.573650 -0.610188
O2    O     O_R   0.500000 0.621980 0.426350 -0.607015
O3    O     O_R   0.500060 0.378020 0.426320 -0.608588
O4    O     O_R   0.499940 0.621980 0.573680 -0.605416
O5    O     O_R   0.317790 0.500010 0.546150 -0.620739
O6    O     O_R   0.682210 0.499990 0.453850 -0.620775
O7    O     O_R   0.317850 0.500010 0.398830 -0.598602
O8    O     O_R   0.682150 0.499990 0.601170 -0.598592
Zn1   Zn    Zn3+2 0.499960 0.500000 0.598370 0.996160
Zn2   Zn    Zn3+2 0.500040 0.500000 0.401630 0.996140
I1    I     I_    0.206476 0.479572 0.059594 -0.317628
I2    I     I_    0.793539 0.520324 0.940410 -0.317383

loop_
_geom_bond_atom_site_label_1
_geom_bond_atom_site_label_2
_ccdc_geom_bond_type
C6    C10   S    
C19   C23   S    
C4    H10   S    
C11   O5    A    
C10   N1    T    
C18   C21   A    
C11   C13   S    
C17   C22   A    
C3    H9    S    
C16   H1    S    
C15   H2    S    
C2    C26   S    
N1    Zn2   S    
C1    C25   S    
C18   H8    S    
N2    Zn1   S    
C17   H7    S    
C2    O4    A    
C4    C7    A    
C1    O3    A    
C9    N2    T    
C17   C19   A    
O3    Zn2   S    
C12   C14   S    
C18   C20   A    
O4    Zn1   S    
C13   C15   D    
C21   H6    S    
C14   C16   D    
C11   O7    A    
C22   H5    S    
C1    O1    A    
C14   H3    S    
C15   C16   S    
C2    O2    A    
C13   H4    S    
C24   C25   T    
C4    C6    A    
C3    C8    A    
C23   C26   T    
C5    C7    A    
O2    Zn2   S    
O8    Zn1   S    
C12   O6    A    
C6    C8    A    
C5    C9    S    
O7    Zn2   S    
C19   C21   A    
O1    Zn1   S    
O5    Zn1   S    
C8    I1    S    
C20   C24   S    
O6    Zn2   S    
C7    I2    S    
C20   C22   A    
C3    C5    A    
C12   O8    A    
