data_mof_unit_5866.cif
_audit_creation_date              2012-12-10T16:48:42-0500
_audit_creation_method            fapswitch 2.2
_symmetry_space_group_name_H-M    P1
_symmetry_Int_Tables_number       1
_space_group_crystal_system       triclinic
_cell_length_a                    7.769632
_cell_length_b                    8.605418
_cell_length_c                    10.813133
_cell_angle_alpha                 88.352761
_cell_angle_beta                  100.487461
_cell_angle_gamma                 92.577181
_cell_volume                      710.024026189

loop_
_atom_site_label
_atom_site_type_symbol
_atom_type_description
_atom_site_fract_x
_atom_site_fract_y
_atom_site_fract_z
_atom_type_partial_charge
C1    C     C_R   0.544041 0.794070 0.499420 0.921355
C2    C     C_R   0.455959 0.205929 0.500580 0.921349
C3    C     C_R   0.575379 0.492376 0.736317 0.826318
C4    C     C_R   0.424621 0.507624 0.263683 0.826316
C5    C     C_2   0.622349 0.474517 0.871837 -0.221727
C6    C     C_2   0.377651 0.525483 0.128163 -0.221728
C7    C     C_2   0.507579 0.528308 0.937382 -0.115231
C8    C     C_2   0.492421 0.471692 0.062618 -0.115232
C9    C     C_2   0.567958 0.954377 0.523391 -0.279251
C10   C     C_2   0.432042 0.045623 0.476610 -0.279250
H1    H     H_    0.587302 0.390240 0.108561 0.213415
H2    H     H_    0.412698 0.609760 0.891439 0.213415
H3    H     H_    0.985187 0.385466 0.407516 0.237194
H4    H     H_    0.014813 0.614534 0.592483 0.237195
N1    N     N_2   0.940600 0.458860 0.467170 -0.161862
N2    N     N_2   0.059400 0.541140 0.532830 -0.161861
O1    O     O_R   0.391630 0.738350 0.508060 -0.634621
O2    O     O_R   0.608370 0.261650 0.491940 -0.634622
O3    O     O_R   0.674540 0.711990 0.487010 -0.566769
O4    O     O_R   0.325460 0.288010 0.512990 -0.566769
O5    O     O_R   0.411370 0.508250 0.688780 -0.595803
O6    O     O_R   0.588630 0.491750 0.311220 -0.595802
O7    O     O_R   0.694270 0.481880 0.667740 -0.618692
O8    O     O_R   0.305730 0.518120 0.332260 -0.618693
Zn1   Zn    Zn3+2 0.311100 0.517600 0.514050 1.005002
Zn2   Zn    Zn3+2 0.688900 0.482400 0.485950 1.005002
C11   C     C_2   0.221375 0.615628 0.074178 0.483675
H5    H     H_    0.167774 0.692749 0.133881 0.071760
O9    O     O_2   0.145778 0.599272 0.965791 -0.543904
C12   C     C_2   0.778625 0.384373 0.925822 0.483675
H6    H     H_    0.832226 0.307251 0.866119 0.071760
O10   O     O_2   0.854222 0.400728 0.034209 -0.543905
C13   C     C_2   0.719065 0.002430 0.624282 0.474408
H7    H     H_    0.714364 0.105353 0.679033 0.049424
O11   O     O_2   0.849386 0.925070 0.649139 -0.544687
C14   C     C_2   0.280934 0.997569 0.375720 0.474412
H8    H     H_    0.285639 0.894651 0.320965 0.049420
O12   O     O_2   0.150608 0.074923 0.350870 -0.544687

loop_
_geom_bond_atom_site_label_1
_geom_bond_atom_site_label_2
_ccdc_geom_bond_type
C9    C13   S    
C2    O2    A    
C4    O6    A    
C9    C10   D    
C1    O1    A    
C6    C11   S    
O2    Zn2   S    
O1    Zn1   S    
C14   O12   D    
C13   H7    S    
C7    C8    S    
C12   O10   D    
C7    H2    S    
C11   O9    D    
C8    H1    S    
C6    C8    D    
C14   H8    S    
C13   O11   D    
H3    N1    S    
C12   H6    S    
C4    O8    A    
H4    N2    S    
C3    O5    A    
C1    O3    A    
O4    Zn1   S    
C2    O4    A    
N1    N2    D    
C2    C10   S    
N2    Zn1   S    
C1    C9    S    
O8    Zn1   S    
C4    C6    S    
C5    C12   S    
O6    Zn2   S    
O7    Zn2   S    
C11   H5    S    
C5    C7    D    
O3    Zn2   S    
O5    Zn1   S    
N1    Zn2   S    
C10   C14   S    
C3    O7    A    
C3    C5    S    
