data_mof_unit_25610.cif
_audit_creation_date              2012-12-11T15:41:30-0500
_audit_creation_method            fapswitch 2.2
_symmetry_space_group_name_H-M    P1
_symmetry_Int_Tables_number       1
_space_group_crystal_system       triclinic
_cell_length_a                    15.106228
_cell_length_b                    15.06254
_cell_length_c                    15.073362
_cell_angle_alpha                 109.056877
_cell_angle_beta                  110.052654
_cell_angle_gamma                 110.089677
_cell_volume                      2614.12117442

loop_
_atom_site_label
_atom_site_type_symbol
_atom_type_description
_atom_site_fract_x
_atom_site_fract_y
_atom_site_fract_z
_atom_type_partial_charge
C1    C     C_R   0.195550 0.993147 0.903414 0.303652
C2    C     C_R   0.771487 0.957553 0.047404 0.321773
C3    C     C_R   0.868053 0.302656 0.302320 0.004491
C4    C     C_R   0.224621 0.674549 0.675265 0.012899
C5    C     C_R   0.499773 0.045151 0.322935 -0.039238
C6    C     C_R   0.500446 0.037824 0.688320 -0.078944
C7    C     C_R   0.501183 0.324534 0.034942 0.029300
C8    C     C_R   0.494430 0.700685 0.066962 0.010864
C9    C     C_R   0.356542 0.206204 0.682777 -0.051794
C10   C     C_R   0.659776 0.869298 0.417690 -0.044759
C11   C     C_R   0.416149 0.290063 0.791759 -0.152053
C12   C     C_R   0.590851 0.772886 0.316000 -0.152597
C13   C     C_R   0.361561 0.324832 0.841270 0.104840
C14   C     C_R   0.633123 0.711580 0.272779 0.092331
C15   C     C_R   0.246832 0.275188 0.779669 -0.149794
C16   C     C_R   0.745269 0.748146 0.333936 -0.128459
C17   C     C_R   0.187630 0.191054 0.670853 -0.070818
C18   C     C_R   0.813793 0.844574 0.435638 -0.084357
C19   C     C_R   0.242449 0.156448 0.622509 0.017780
C20   C     C_R   0.771121 0.905158 0.477384 -0.062699
C21   C     C_R   0.418313 0.509081 0.970226 -0.220723
C22   C     C_R   0.563913 0.515564 0.150061 -0.222691
C23   C     C_R   0.804530 0.209250 0.299545 -0.004001
C24   C     C_R   0.249927 0.776705 0.686007 -0.073130
C25   C     C_R   0.487952 0.605468 0.071245 0.078312
C26   C     C_R   0.497120 0.420785 0.046988 0.068544
C27   C     C_R   0.560794 0.610244 0.163597 0.034525
C28   C     C_R   0.424610 0.417503 0.955456 0.021325
C29   C     C_R   0.036597 0.477545 0.379225 -0.155496
C30   C     C_R   0.127030 0.472194 0.571458 -0.146123
C31   C     C_R   0.127999 0.571012 0.473053 -0.119215
C32   C     C_R   0.035647 0.378649 0.477654 -0.141057
C33   C     C_R   0.165378 0.571586 0.572319 0.137031
C34   C     C_R   0.983383 0.384344 0.384449 0.126081
C35   C     C_R   0.443282 0.943773 0.497837 0.385648
C36   C     C_R   0.553789 0.147766 0.515208 0.415592
C37   C     C_R   0.441710 0.948045 0.408342 -0.331991
C38   C     C_R   0.555138 0.143726 0.605869 -0.341450
C39   C     C_R   0.496254 0.049127 0.416779 0.019406
C40   C     C_R   0.499129 0.042163 0.595971 0.032425
C41   C     C_R   0.073203 0.016037 0.044630 -0.166946
C42   C     C_R   0.861601 0.897190 0.861337 -0.163189
C43   C     C_R   0.992563 0.031562 0.055132 -0.104475
C44   C     C_R   0.943378 0.882500 0.850372 -0.103837
C45   C     C_R   0.408067 0.973595 0.220099 -0.260522
C46   C     C_R   0.592303 0.080058 0.785566 -0.236170
C47   C     C_R   0.887195 0.970434 0.964145 0.162972
C48   C     C_R   0.047802 0.941129 0.942795 0.149886
C49   C     C_R   0.593344 0.315624 0.055955 -0.133429
C50   C     C_R   0.405867 0.702390 0.004801 -0.154420
C51   C     C_R   0.591482 0.062030 0.314110 0.741831
C52   C     C_R   0.409195 0.990334 0.694323 0.751325
C53   C     C_R   0.409151 0.221661 0.970248 -0.081651
C54   C     C_R   0.587470 0.791575 0.097613 -0.046431
C55   C     C_R   0.803787 0.300862 0.209855 -0.121725
C56   C     C_R   0.251188 0.685900 0.777746 -0.102415
C57   C     C_R   0.198058 0.906237 0.997847 -0.185349
C58   C     C_R   0.764785 0.043876 0.950421 -0.170160
C59   C     C_R   0.135593 0.933718 0.935234 -0.033835
C60   C     C_R   0.803732 0.981713 0.978888 -0.052370
H1    H     H_    0.398717 0.180057 0.644709 0.135493
H2    H     H_    0.626949 0.916266 0.450354 0.143642
H3    H     H_    0.504651 0.328509 0.837164 0.123676
H4    H     H_    0.504631 0.746070 0.271145 0.128284
H5    H     H_    0.203403 0.301494 0.816131 0.127676
H6    H     H_    0.780053 0.702982 0.302222 0.129429
H7    H     H_    0.099264 0.152725 0.624014 0.127973
H8    H     H_    0.900134 0.872561 0.481952 0.153764
H9    H     H_    0.365897 0.507809 0.898722 0.131310
H10   H     H_    0.617744 0.515139 0.219290 0.140423
H11   H     H_    0.002562 0.482841 0.306636 0.121432
H12   H     H_    0.159105 0.467965 0.645047 0.110836
H13   H     H_    0.160830 0.644607 0.468978 0.161500
H14   H     H_    0.000902 0.306061 0.482843 0.123949
H15   H     H_    0.401658 0.871778 0.332900 0.177289
H16   H     H_    0.598573 0.218859 0.683265 0.173014
H17   H     H_    0.155638 0.063166 0.115128 0.136150
H18   H     H_    0.779089 0.851192 0.791339 0.141708
H19   H     H_    0.833209 0.175967 0.348889 0.156360
H20   H     H_    0.237092 0.796862 0.622380 0.180898
H21   H     H_    0.011459 0.089738 0.133918 0.145461
H22   H     H_    0.925912 0.826262 0.771513 0.152708
H23   H     H_    0.323440 0.936500 0.199438 0.160745
H24   H     H_    0.676420 0.134030 0.811765 0.146242
H25   H     H_    0.677991 0.380794 0.100281 0.111092
H26   H     H_    0.320889 0.648783 0.976704 0.107395
H27   H     H_    0.325061 0.201462 0.938746 0.152617
H28   H     H_    0.668618 0.821245 0.160612 0.165202
H29   H     H_    0.830809 0.352758 0.178093 0.094272
H30   H     H_    0.241302 0.623263 0.799623 0.094561
H31   H     H_    0.171533 0.853047 0.028706 0.133483
H32   H     H_    0.784619 0.084381 0.906818 0.129467
H33   H     H_    0.196601 0.091385 0.538225 0.135213
H34   H     H_    0.824332 0.979854 0.556034 0.131434
N1    N     N_R   0.293810 0.002730 0.945950 -0.071676
N2    N     N_R   0.706190 0.997270 0.054050 -0.076851
N3    N     N_R   0.706160 0.152130 0.208910 -0.057886
N4    N     N_R   0.293840 0.847870 0.791090 -0.039679
N5    N     N_R   0.443140 0.945920 0.152090 -0.077134
N6    N     N_R   0.556860 0.054080 0.847910 -0.073955
N7    N     N_R   0.556830 0.208940 0.002760 -0.049153
N8    N     N_R   0.443170 0.791060 0.997240 -0.042426
N9    N     N_R   0.556790 0.002750 0.208910 -0.119417
N10   N     N_R   0.443210 0.997250 0.791090 -0.110361
N11   N     N_R   0.443180 0.152110 0.945950 -0.042397
N12   N     N_R   0.556820 0.847890 0.054050 -0.048741
N13   N     N_R   0.706170 0.208950 0.152090 -0.047065
N14   N     N_R   0.293830 0.791050 0.847910 -0.045503
N15   N     N_R   0.293800 0.945910 0.002760 -0.052515
N16   N     N_R   0.706200 0.054090 0.997240 -0.054817
Ni1   Ni    Ni4+2 0.369690 0.999990 0.869700 0.300855
Ni2   Ni    Ni4+2 0.630310 0.000010 0.130300 0.252985
Ni3   Ni    Ni4+2 0.369670 0.869670 0.000000 0.206737
Ni4   Ni    Ni4+2 0.630330 0.130330 0.000000 0.200298
Br1   Br    Br    0.132566 0.008620 0.779503 -0.606947
Br2   Br    Br    0.839357 0.912660 0.142584 -0.620687
Br3   Br    Br    0.376716 0.801662 0.483384 -0.598426
Br4   Br    Br    0.629379 0.287139 0.528204 -0.513447
F1    F     F_    0.695089 0.109663 0.397479 -0.720085
F2    F     F_    0.306987 0.965892 0.627117 -0.710927

loop_
_geom_bond_atom_site_label_1
_geom_bond_atom_site_label_2
_ccdc_geom_bond_type
N5    N9    A    
C8    C25   S    
C3    C23   A    
C58   H32   S    
N12   Ni2   S    
N2    Ni2   S    
C7    C26   S    
C24   N4    A    
C35   C37   A    
C44   H22   S    
C1    C59   A    
C41   H17   S    
C4    C24   A    
C2    C60   A    
C31   H13   S    
C58   C60   A    
C15   H5    S    
N6    N10   A    
N4    N14   A    
C56   N14   A    
C20   H34   S    
C47   C60   S    
C2    Br2   S    
C24   H20   S    
C57   N15   A    
C10   C20   A    
C51   F1    S    
C31   C33   A    
C13   C28   S    
C14   C27   S    
C30   C32   A    
C36   Br4   S    
N16   Ni4   S    
C18   C20   A    
C19   H33   S    
N15   Ni3   S    
C56   H30   S    
N11   Ni1   S    
C4    C56   A    
C29   C31   A    
N7    Ni4   S    
C41   C43   A    
C6    C46   A    
C10   H2    S    
C42   C44   A    
C9    C19   A    
N7    N11   A    
C17   H7    S    
C54   N12   A    
C49   H25   S    
C45   H23   S    
N6    Ni4   S    
C7    C49   A    
N1    N15   A    
C51   N9    A    
C8    C54   A    
N3    Ni2   S    
C38   H16   S    
C3    C34   S    
C5    C45   A    
C29   C34   A    
C55   N13   A    
N9    Ni2   S    
C32   C34   A    
N14   Ni3   S    
N13   Ni4   S    
C9    H1    S    
C46   N6    A    
C1    N1    A    
C53   H27   S    
C9    C11   A    
C10   C12   A    
C46   H24   S    
C52   F2    S    
C23   N3    A    
C21   C28   A    
C12   C14   A    
C42   H18   S    
C22   C27   A    
C13   C15   A    
C45   N5    A    
C43   H21   S    
C14   C16   A    
C35   Br3   S    
C16   H6    S    
C7    C53   A    
C36   C38   A    
C8    C50   A    
C48   C59   S    
C15   C17   A    
C21   C25   A    
C4    C33   S    
C52   N10   A    
C32   H14   S    
N4    Ni1   S    
C57   H31   S    
C30   C33   A    
C58   N16   A    
C26   C28   A    
C36   C39   A    
C43   C47   A    
N5    Ni3   S    
N10   Ni1   S    
C30   H12   S    
C50   N8    A    
C25   C27   A    
C3    C55   A    
C23   H19   S    
C54   H28   S    
C5    C39   S    
C35   C40   A    
C37   C39   A    
N8    Ni3   S    
N1    Ni1   S    
C38   C40   A    
C11   C13   A    
N2    N16   A    
C12   H4    S    
C2    N2    A    
C17   C19   A    
C41   C48   A    
N8    N12   A    
C6    C40   S    
C42   C47   A    
C37   H15   S    
C55   H29   S    
C57   C59   A    
C50   H26   S    
N3    N13   A    
C53   N11   A    
C16   C18   A    
C22   C26   A    
C21   H9    S    
C5    C51   A    
C1    Br1   S    
C6    C52   A    
C11   H3    S    
C18   H8    S    
C22   H10   S    
C44   C48   A    
C49   N7    A    
C29   H11   S    
