data_mof_unit_38011.cif
_audit_creation_date              2013-03-05T15:41:44-0500
_audit_creation_method            fapswitch 2.2
_symmetry_space_group_name_H-M    P1
_symmetry_Int_Tables_number       1
_space_group_crystal_system       triclinic
_cell_length_a                    6.949038
_cell_length_b                    13.69398
_cell_length_c                    20.415853
_cell_angle_alpha                 102.18984
_cell_angle_beta                  90.563716
_cell_angle_gamma                 90.712165
_cell_volume                      1898.66824102

loop_
_atom_site_label
_atom_site_type_symbol
_atom_site_description
_atom_site_fract_x
_atom_site_fract_y
_atom_site_fract_z
_atom_type_partial_charge
O1    O     O_R   0.506860 0.599390 0.449240 -0.535646
O2    O     O_R   0.180220 0.594600 0.586780 -0.564472
O3    O     O_R   0.004500 0.400610 0.550760 -0.563069
C1    C     C_R   0.349759 0.615531 0.613444 0.875392
O4    O     O_R   0.177490 0.611290 0.451970 -0.541462
O5    O     O_R   0.001750 0.417420 0.414990 -0.564026
C2    C     C_R   0.346692 0.638783 0.435987 0.985398
O6    O     O_R   0.509610 0.582580 0.585010 -0.548508
O7    O     O_3   0.337420 0.436370 0.488020 -0.273742
V1    V     V_3+5 0.064680 0.511800 0.502220 1.260772
O8    O     O_R   0.671710 0.405400 0.413220 -0.520359
C3    C     C_R   0.837735 0.387209 0.385553 0.855840
O9    O     O_R   0.674440 0.388710 0.548030 -0.566647
C4    C     C_R   0.843250 0.363454 0.565479 0.842012
V2    V     V_3+5 0.564010 0.488200 0.497780 1.274551
O10   O     O_3   0.841140 0.563630 0.511980 -0.262721
C5    C     C_R   0.909231 0.110288 0.602528 0.373808
H1    H     H_    0.888505 0.170333 0.513694 0.116164
C6    C     C_R   0.855959 0.283828 0.602344 -0.125246
C7    C     C_R   0.865745 0.307132 0.921448 -0.145971
C8    C     C_R   0.904657 0.381604 0.886810 -0.018977
C9    C     C_R   0.933267 0.358428 0.817918 0.288639
C10   C     C_R   0.902041 0.258620 0.780845 0.000901
C11   C     C_R   0.881218 0.180411 0.817002 -0.076557
C12   C     C_R   0.892611 0.233666 0.709295 -0.010152
C13   C     C_R   0.917109 0.132799 0.674211 -0.057594
C14   C     C_R   0.938800 0.058942 0.712285 0.333124
C15   C     C_R   0.889276 0.079861 0.780181 0.191775
C16   C     C_R   0.847741 0.305943 0.671868 -0.052247
C17   C     C_R   0.888588 0.187000 0.568038 -0.099098
C18   C     C_R   0.863721 0.206823 0.888524 -0.073912
H2    H     H_    0.801201 0.379588 0.695869 0.131063
H3    H     H_    0.853297 0.327476 0.975513 0.096292
H4    H     H_    0.925081 0.457646 0.914697 0.127923
C19   C     C_2   0.991888 0.299228 0.280807 -0.032189
C20   C     C_2   0.831424 0.331202 0.314988 0.108895
H5    H     H_    0.131228 0.315670 0.305438 0.178036
C21   C     C_2   0.992487 0.249591 0.208589 0.322049
C22   C     C_2   0.870918 0.172711 0.183119 -0.169643
H6    H     H_    0.767926 0.147179 0.215697 0.117801
C23   C     C_2   0.214558 0.779601 0.784497 -0.034455
C24   C     C_2   0.362631 0.796395 0.828549 0.135415
H7    H     H_    0.085811 0.822572 0.796095 0.163265
C25   C     C_2   0.211014 0.703950 0.720441 0.032576
C26   C     C_2   0.362564 0.685872 0.679020 -0.100387
H8    H     H_    0.072664 0.668732 0.704399 0.140357
H9    H     H_    0.498421 0.725177 0.692438 0.152263
C27   C     C_R   0.398185 0.889436 0.388551 -0.038611
H10   H     H_    0.416126 0.966705 0.413903 0.183151
C28   C     C_R   0.358202 0.716453 0.396260 -0.234908
C29   C     C_R   0.371922 0.685997 0.072465 -0.098024
C30   C     C_R   0.389281 0.611560 0.108878 -0.043257
C31   C     C_R   0.388741 0.635613 0.178659 0.033169
C32   C     C_R   0.361546 0.735029 0.214170 0.067880
C33   C     C_R   0.357662 0.811527 0.176656 -0.047710
C34   C     C_R   0.354287 0.761422 0.285844 -0.044284
C35   C     C_R   0.380988 0.863540 0.318295 -0.107219
C36   C     C_R   0.384858 0.938457 0.280059 0.367494
C37   C     C_R   0.363200 0.911989 0.210603 -0.126613
C38   C     C_R   0.321161 0.690090 0.326475 0.260874
C39   C     C_R   0.397193 0.816961 0.427615 0.272852
C40   C     C_R   0.359316 0.785940 0.105577 -0.072029
H11   H     H_    0.376301 0.666077 0.018227 0.093587
H12   H     H_    0.419866 0.575693 0.203698 0.158623
H13   H     H_    0.408368 0.534832 0.082898 0.115168
H14   H     H_    0.363475 0.971446 0.183042 0.110139
O11   O     O_R   0.203230 0.917310 0.915020 -0.561742
O12   O     O_R   0.535500 0.888690 0.048040 -0.567695
O13   O     O_R   0.711080 0.082610 0.085000 -0.553935
C41   C     C_R   0.366743 0.862491 0.065065 0.808135
O14   O     O_R   0.532630 0.905370 0.913230 -0.498341
O15   O     O_R   0.708190 0.099410 0.949230 -0.541459
C42   C     C_R   0.363464 0.878997 0.888742 0.856258
O16   O     O_R   0.206120 0.900510 0.050790 -0.568468
O17   O     O_3   0.375360 0.063570 0.011990 -0.259741
V3    V     V_3+5 0.648170 0.988200 0.997780 1.238812
O18   O     O_R   0.038240 0.111390 0.951940 -0.551169
C43   C     C_R   0.870001 0.134210 0.932176 0.900119
O19   O     O_R   0.041120 0.094710 0.086750 -0.536309
C44   C     C_R   0.874306 0.115447 0.113373 0.854352
V4    V     V_3+5 0.148810 0.011930 0.002180 1.226806
O20   O     O_3   0.871750 0.936430 0.988010 -0.257535
Br1   Br    Br    0.582428 0.322029 0.271015 -0.420246
Br2   Br    Br    0.175387 0.300865 0.153760 -0.450053
Br3   Br    Br    0.578045 0.706618 0.821124 -0.510041
N1    N     N_R   0.424558 0.848051 0.499248 0.118045
O21   O     O_R   0.508301 0.790323 0.533594 -0.332328
O22   O     O_R   0.382647 0.938543 0.529720 -0.276957
N2    N     N_R   0.411753 0.042311 0.310670 0.084085
O23   O     O_R   0.302355 0.108651 0.292571 -0.349374
O24   O     O_R   0.567492 0.072041 0.345483 -0.358567
Br4   Br    Br    0.066406 0.934123 0.678585 -0.428235
N3    N     N_R   0.222910 0.596889 0.299462 0.067502
O25   O     O_R   0.290022 0.512880 0.309431 -0.340628
O26   O     O_R   0.062250 0.596342 0.266062 -0.347644
Br5   Br    Br    0.889350 0.979452 0.545016 -0.369581
Br6   Br    Br    0.063580 0.462261 0.783711 -0.583550
Br7   Br    Br    0.808776 0.965680 0.814256 -0.508028

loop_
_geom_bond_atom_site_label_1
_geom_bond_atom_site_label_2
_geom_bond_distance
_ccdc_geom_bond_type
N3    O25   1.301049 A    
C33   C37   1.403548 A    
C23   C24   1.345011 D    
C19   C20   1.349242 D    
O15   V3    2.026195 S    
V4    O20   2.161634 S    
C35   C36   1.414384 A    
C27   C35   1.406464 A    
C31   C32   1.416683 A    
C30   C31   1.392865 A    
C13   C14   1.408298 A    
C5    C13   1.430823 A    
C19   H5    1.085501 S    
C16   H2    1.079029 S    
C37   H14   1.083043 S    
O5    C3    1.304285 A    
O14   V3    2.008502 S    
C31   H12   1.077381 S    
N1    O22   1.301706 A    
C20   Br1   1.931845 S    
V2    O10   2.161658 S    
C33   C40   1.419293 A    
C34   C35   1.424339 A    
C40   C41   1.466737 S    
O13   V3    2.007933 S    
O15   C43   1.295036 A    
O8    V2    2.011462 S    
C41   O16   1.293819 A    
C10   C11   1.430023 A    
O1    V2    2.025509 S    
C3    C20   1.482206 S    
O7    V1    2.162433 S    
C1    O6    1.299620 A    
C38   N3    1.439767 S    
N3    O26   1.301577 A    
C9    Br6   1.931153 S    
C8    C9    1.391767 A    
C5    C17   1.390708 A    
C23   H7    1.077573 S    
C29   C40   1.396857 A    
C25   H8    1.086144 S    
O4    C2    1.295810 A    
C1    C26   1.476167 S    
C26   H9    1.084456 S    
C12   C16   1.408202 A    
C32   C34   1.432809 A    
C29   C30   1.388361 A    
C19   C21   1.487568 S    
C29   H11   1.083873 S    
C24   Br3   1.935636 S    
C22   H6    1.085432 S    
O19   V4    2.011479 S    
N1    O21   1.301051 A    
O17   V4    1.710242 S    
C8    H4    1.083041 S    
C36   C37   1.393621 A    
O18   C43   1.296270 A    
C34   C38   1.426758 A    
O2    C1    1.295989 A    
O17   V3    2.162493 S    
O18   V4    2.024333 S    
C14   Br4   1.932440 S    
C5    Br5   1.926151 S    
O3    C4    1.289111 A    
O11   C42   1.307790 A    
C7    H3    1.084456 S    
C27   H10   1.080373 S    
O11   V4    2.009994 S    
O6    V2    2.009529 S    
O9    V2    2.024416 S    
H1    C17   1.084482 S    
C23   C25   1.486827 S    
N2    O24   1.301472 A    
O16   V4    2.029356 S    
V3    O20   1.711729 S    
O2    V1    2.008497 S    
C25   C26   1.349470 D    
C18   C43   1.469492 S    
O14   C42   1.289927 A    
C15   Br7   1.920152 S    
C32   C33   1.422599 A    
C24   C42   1.484042 S    
C21   Br2   1.923312 S    
O1    C2    1.293700 A    
C4    C6    1.452883 S    
C11   C15   1.424708 A    
C2    C28   1.469334 S    
O5    V1    2.007928 S    
O8    C3    1.293329 A    
O12   V3    2.025483 S    
C28   C38   1.414091 A    
C22   C44   1.473975 S    
C12   C13   1.428421 A    
C11   C18   1.435030 A    
O4    V1    2.025512 S    
O3    V1    2.026053 S    
V1    O10   1.711796 S    
C27   C39   1.398330 A    
C21   C22   1.352963 D    
C10   C12   1.428850 A    
O7    V2    1.711460 S    
C36   N2    1.436615 S    
C39   N1    1.444202 S    
O19   C44   1.294296 A    
C7    C8    1.383724 A    
O12   C41   1.294204 A    
C14   C15   1.402168 A    
C28   C39   1.411665 A    
C9    C10   1.428467 A    
O13   C44   1.299500 A    
N2    O23   1.301207 A    
O9    C4    1.294798 A    
C6    C17   1.385115 A    
C30   H13   1.082784 S    
C7    C18   1.395820 A    
C6    C16   1.389306 A    
