data_mof_unit_33409.cif
_audit_creation_date              2012-12-10T16:54:59-0500
_audit_creation_method            fapswitch 2.2
_symmetry_space_group_name_H-M    P1
_symmetry_Int_Tables_number       1
_space_group_crystal_system       triclinic
_cell_length_a                    7.763101
_cell_length_b                    8.583458
_cell_length_c                    15.72209
_cell_angle_alpha                 90.84517
_cell_angle_beta                  85.859598
_cell_angle_gamma                 93.517688
_cell_volume                      1042.87077939

loop_
_atom_site_label
_atom_site_type_symbol
_atom_type_description
_atom_site_fract_x
_atom_site_fract_y
_atom_site_fract_z
_atom_type_partial_charge
Br1   Br    Br    0.784363 0.022302 0.413519 -0.451508
Br2   Br    Br    0.204623 0.261794 0.918294 -0.393204
Br3   Br    Br    0.581217 0.158532 0.902828 -0.290594
C1    C     C_R   0.545515 0.794291 0.493832 0.897971
C2    C     C_2   0.434358 0.041961 0.499635 -0.421482
C3    C     C_R   0.501997 0.499793 0.661603 0.892184
C4    C     C_R   0.454932 0.205369 0.498435 0.988458
C5    C     C_R   0.497966 0.499924 0.338386 0.902405
C6    C     C_3   0.377550 0.611854 0.954703 -0.528841
C7    C     C_3   0.684709 0.538156 0.946402 0.490772
C8    C     C_3   0.681867 0.533964 0.044527 -0.400913
C9    C     C_1   0.493507 0.498043 0.249674 -0.115882
C10   C     C_3   0.501679 0.488839 0.917191 -0.004350
C11   C     C_3   0.372299 0.611626 0.052896 -0.500903
C12   C     C_3   0.495642 0.491733 0.082786 0.040408
C13   C     C_3   0.435572 0.326446 0.051326 0.443015
C14   C     C_3   0.437892 0.322705 0.951968 0.407148
C15   C     C_1   0.492919 0.495412 0.174353 0.041303
C16   C     C_1   0.505296 0.492512 0.825566 0.091603
C17   C     C_1   0.505560 0.496143 0.750280 -0.087034
C18   C     C_2   0.568980 0.955004 0.477143 0.105495
F1    F     F_    0.539771 0.216382 0.081081 -0.610691
F2    F     F_    0.809812 0.444037 0.910385 -0.589643
H1    H     H_    0.411048 0.730663 0.076564 0.249574
H2    H     H_    0.771754 0.447328 0.064385 0.262481
H3    H     H_    0.302193 0.297300 0.079659 0.114041
H4    H     H_    0.244651 0.588743 0.933626 0.267491
H5    H     H_    0.237536 0.582053 0.079386 0.215786
H6    H     H_    0.311028 0.992999 0.527772 0.178631
H7    H     H_    0.013632 0.381987 0.436575 0.220405
H8    H     H_    0.986371 0.618054 0.563401 0.206028
H9    H     H_    0.422475 0.730391 0.931315 0.234160
H10   H     H_    0.722388 0.659474 0.925093 0.114587
H11   H     H_    0.728937 0.650155 0.068983 0.164163
N1    N     N_2   0.950340 0.457950 0.477370 -0.148577
N2    N     N_2   0.049660 0.542050 0.522630 -0.158722
O1    O     O_R   0.389240 0.738570 0.505550 -0.633527
O2    O     O_R   0.678400 0.711630 0.491050 -0.598409
O3    O     O_R   0.355360 0.513470 0.630110 -0.599714
O4    O     O_R   0.644510 0.486530 0.615610 -0.613869
O5    O     O_R   0.321600 0.288370 0.508950 -0.620132
O6    O     O_R   0.610760 0.261430 0.494450 -0.564544
O7    O     O_R   0.355490 0.513470 0.384390 -0.626931
O8    O     O_R   0.644640 0.486530 0.369890 -0.593758
Zn1   Zn    Zn3+2 0.306930 0.517990 0.509680 0.996645
Zn2   Zn    Zn3+2 0.693070 0.482010 0.490320 1.028472

loop_
_geom_bond_atom_site_label_1
_geom_bond_atom_site_label_2
_ccdc_geom_bond_type
C12   C15   S    
C13   F1    S    
C6    C11   S    
Br1   C18   S    
C7    F2    S    
C3    C17   S    
N1    N2    D    
C11   C12   S    
C5    O7    A    
C10   C14   S    
O3    Zn1   S    
C16   C17   T    
C9    C15   T    
N2    Zn1   S    
Br2   C14   S    
O4    Zn2   S    
C1    C18   S    
O7    Zn1   S    
H7    N1    S    
O8    Zn2   S    
Br3   C14   S    
C7    H10   S    
C2    H6    S    
C4    O5    A    
C13   H3    S    
C3    O4    A    
O2    Zn2   S    
C7    C8    S    
C10   C16   S    
O1    Zn1   S    
C12   C13   S    
C8    H2    S    
C5    O8    A    
C2    C18   D    
C1    O1    A    
C6    H4    S    
O6    Zn2   S    
C4    O6    A    
C11   H1    S    
C2    C4    S    
O5    Zn1   S    
H8    N2    S    
C6    C10   S    
C6    H9    S    
C11   H5    S    
C3    O3    A    
N1    Zn2   S    
C8    C12   S    
C8    H11   S    
C5    C9    S    
C1    O2    A    
C13   C14   S    
C7    C10   S    
