data_mof_unit_11536.cif
_audit_creation_date              2013-03-05T16:56:18-0500
_audit_creation_method            fapswitch 2.2
_symmetry_space_group_name_H-M    P1
_symmetry_Int_Tables_number       1
_space_group_crystal_system       triclinic
_cell_length_a                    17.325694
_cell_length_b                    16.724103
_cell_length_c                    10.695113
_cell_angle_alpha                 90.870421
_cell_angle_beta                  90.698727
_cell_angle_gamma                 90.459716
_cell_volume                      3098.28811362

loop_
_atom_site_label
_atom_site_type_symbol
_atom_site_description
_atom_site_fract_x
_atom_site_fract_y
_atom_site_fract_z
_atom_type_partial_charge
O1    O     O_R   0.389130 0.566570 0.500000 -0.546111
O2    O     O_R   0.389130 0.433430 0.500000 -0.566591
C1    C     C_R   0.352106 0.500071 0.506682 0.950064
O3    O     O_R   0.500000 0.566540 0.314800 -0.617202
O4    O     O_R   0.500000 0.433460 0.314800 -0.591474
C2    C     C_R   0.497456 0.499509 0.257455 0.928417
Zn1   Zn    Zn3+2 0.500020 0.588860 0.500010 0.969643
Zn2   Zn    Zn3+2 0.500020 0.411140 0.500010 0.985040
O5    O     O_R   0.610900 0.566520 0.500010 -0.647996
O6    O     O_R   0.610900 0.433480 0.500010 -0.616641
O7    O     O_R   0.500030 0.566540 0.685210 -0.615355
O8    O     O_R   0.500030 0.433460 0.685210 -0.600936
C3    C     C_R   0.647307 0.500239 0.494646 0.843213
C4    C     C_R   0.503963 0.500802 0.743295 0.836365
C5    C     C_3   0.479252 0.583398 0.074880 -0.468232
C6    C     C_3   0.439278 0.439435 0.066544 -0.492748
C7    C     C_3   0.469811 0.582381 0.932698 0.272325
C8    C     C_3   0.454077 0.430237 0.925723 0.272527
C9    C     C_3   0.580940 0.475015 0.078568 -0.448463
C10   C     C_3   0.499108 0.499196 0.121996 -0.042607
C11   C     C_3   0.506320 0.502392 0.880818 -0.103759
C12   C     C_3   0.591789 0.492798 0.936096 0.924546
C13   C     C_R   0.840948 0.569572 0.384909 -0.169977
C14   C     C_R   0.848235 0.428841 0.435629 -0.167603
C15   C     C_R   0.763968 0.570247 0.419629 -0.210028
C16   C     C_R   0.771368 0.429402 0.470873 -0.205712
H1    H     H_    0.731976 0.625355 0.411806 0.158944
H2    H     H_    0.745335 0.374715 0.504114 0.154034
C17   C     C_R   0.729155 0.500485 0.465027 -0.036614
C18   C     C_R   0.882910 0.499061 0.394043 0.144941
C19   C     C_1   0.964287 0.502322 0.387341 -0.095620
C20   C     C_1   0.032688 0.504409 0.399077 0.125789
C21   C     C_R   0.147493 0.575367 0.475925 0.366346
C22   C     C_R   0.150319 0.431185 0.439878 0.299351
C23   C     C_R   0.226166 0.574613 0.510308 0.315372
C24   C     C_R   0.224300 0.429340 0.494308 0.337823
C25   C     C_R   0.266768 0.501212 0.506780 -0.418048
C26   C     C_R   0.112509 0.504610 0.431041 -0.219567
C27   C     C_R   0.444101 0.834812 0.449374 -0.407467
C28   C     C_R   0.456963 0.162842 0.424325 -0.381147
H3    H     H_    0.397507 0.869815 0.411222 0.153188
H4    H     H_    0.421820 0.126509 0.361257 0.159302
C29   C     C_R   0.442340 0.749471 0.442819 0.639835
C30   C     C_R   0.453494 0.247743 0.421360 0.641705
N1    N     N_R   0.500030 0.707230 0.500030 -0.122597
N2    N     N_R   0.500030 0.292770 0.500030 -0.122669
C31   C     C_R   0.561987 0.746379 0.552980 -0.112319
C32   C     C_R   0.550032 0.256206 0.580236 -0.121148
H5    H     H_    0.607684 0.712367 0.595013 0.151058
H6    H     H_    0.587065 0.292422 0.640865 0.180134
C33   C     C_R   0.566766 0.830425 0.555820 -0.288183
C34   C     C_R   0.553754 0.172209 0.586439 -0.295432
C35   C     C_R   0.506749 0.875688 0.505291 0.117050
C36   C     C_R   0.506544 0.124486 0.507990 0.114187
C37   C     C_1   0.508915 0.963538 0.509524 -0.028257
C38   C     C_1   0.508930 0.036716 0.510571 -0.029814
H7    H     H_    0.526645 0.625300 0.104172 0.231725
H8    H     H_    0.443361 0.380313 0.112349 0.248100
O9    O     O_3   0.262621 0.646326 0.541846 -0.573419
C39   C     C_3   0.278493 0.650739 0.672369 0.116610
H9    H     H_    0.339850 0.635641 0.690662 0.156993
H10   H     H_    0.243316 0.608059 0.727994 0.085348
C40   C     C_3   0.265365 0.736917 0.718524 -0.332461
H11   H     H_    0.319975 0.771589 0.711423 0.209654
H12   H     H_    0.222002 0.766688 0.657985 0.234216
C41   C     C_3   0.236796 0.740545 0.853073 -1.019690
H13   H     H_    0.176360 0.718321 0.857336 0.266571
H14   H     H_    0.238473 0.803443 0.887748 0.272810
H15   H     H_    0.272987 0.703477 0.915226 0.252183
O10   O     O_3   0.256121 0.358318 0.534375 -0.640591
C42   C     C_3   0.214626 0.328279 0.637438 0.127204
H16   H     H_    0.235017 0.266552 0.653764 0.142225
H17   H     H_    0.151619 0.322789 0.618344 0.183127
C43   C     C_3   0.229201 0.378510 0.756912 -0.402234
H18   H     H_    0.291942 0.381407 0.776332 0.217780
H19   H     H_    0.208059 0.440434 0.744133 0.201456
C44   C     C_3   0.188185 0.342719 0.868678 -0.988438
H20   H     H_    0.124746 0.342862 0.852543 0.272840
H21   H     H_    0.201792 0.378886 0.954190 0.258772
H22   H     H_    0.207282 0.280392 0.883976 0.275942
O11   O     O_3   0.381587 0.706268 0.387599 -0.582896
C45   C     C_3   0.348877 0.742710 0.280851 0.055467
H23   H     H_    0.338891 0.695140 0.208900 0.143448
H24   H     H_    0.387653 0.787142 0.236105 0.106133
C46   C     C_3   0.270094 0.778241 0.312705 -0.284549
H25   H     H_    0.229519 0.729144 0.336406 0.274933
H26   H     H_    0.275051 0.818942 0.395387 0.214196
C47   C     C_3   0.236520 0.824083 0.202859 -0.995475
H27   H     H_    0.275824 0.873822 0.177073 0.266002
H28   H     H_    0.179866 0.849498 0.229117 0.275615
H29   H     H_    0.227762 0.783249 0.121102 0.273475
O12   O     O_3   0.408616 0.286285 0.332741 -0.647053
C48   C     C_3   0.330935 0.259094 0.334379 0.115291
H30   H     H_    0.294137 0.312647 0.328415 0.194082
H31   H     H_    0.315038 0.228770 0.422976 0.158899
C49   C     C_3   0.311328 0.206725 0.219129 -0.440781
H32   H     H_    0.292518 0.245789 0.141786 0.215655
H33   H     H_    0.362600 0.172990 0.187663 0.242615
C50   C     C_3   0.246287 0.147452 0.245146 -0.945309
H34   H     H_    0.265069 0.104160 0.316926 0.263981
H35   H     H_    0.230793 0.113891 0.157917 0.265590
H36   H     H_    0.194488 0.179427 0.278794 0.272859
H37   H     H_    0.616366 0.859714 0.599467 0.156250
H38   H     H_    0.593390 0.144896 0.651851 0.154857
H39   H     H_    0.424671 0.605012 0.116752 0.141652
H40   H     H_    0.379705 0.461622 0.082540 0.133621
H41   H     H_    0.407061 0.580400 0.907361 0.040530
H42   H     H_    0.397066 0.433070 0.876668 0.029598
O13   O     O_3   0.504413 0.652156 0.882165 -0.591258
C51   C     C_3   0.465539 0.722476 0.921120 0.084091
H43   H     H_    0.486558 0.741481 0.015664 0.142381
H44   H     H_    0.402067 0.713774 0.924075 0.122946
C52   C     C_3   0.482612 0.789582 0.830660 -0.303040
H45   H     H_    0.546109 0.797383 0.822480 0.227946
H46   H     H_    0.457828 0.773031 0.737726 0.226240
C53   C     C_3   0.447446 0.868475 0.874121 -0.987513
H47   H     H_    0.383913 0.862135 0.883182 0.269550
H48   H     H_    0.459697 0.915412 0.804583 0.274334
H49   H     H_    0.472815 0.887549 0.965788 0.264607
O14   O     O_3   0.493176 0.356604 0.905066 -0.598256
C54   C     C_3   0.446623 0.297617 0.844339 0.158559
H50   H     H_    0.486143 0.251055 0.808550 0.169857
H51   H     H_    0.414748 0.320981 0.761913 0.145695
C55   C     C_3   0.391854 0.257687 0.935424 -0.429643
H52   H     H_    0.424963 0.240114 0.020072 0.245436
H53   H     H_    0.346611 0.300817 0.963098 0.218731
C56   C     C_3   0.353797 0.183310 0.876591 -0.964314
H54   H     H_    0.323157 0.198695 0.788645 0.262771
H55   H     H_    0.311453 0.157721 0.942286 0.269557
H56   H     H_    0.397971 0.137375 0.855715 0.271219
H57   H     H_    0.625785 0.507351 0.135650 0.152892
H58   H     H_    0.586449 0.410723 0.099560 0.183120
O15   O     O_3   0.634195 0.566567 0.931329 -0.669730
C57   C     C_3   0.665866 0.585379 0.813584 0.128275
H59   H     H_    0.622208 0.614768 0.754809 0.202242
H60   H     H_    0.688291 0.532806 0.761535 0.150357
C58   C     C_3   0.731580 0.645893 0.834681 -0.377632
H61   H     H_    0.707514 0.702767 0.871958 0.235396
H62   H     H_    0.773288 0.622922 0.904915 0.227462
C59   C     C_3   0.774489 0.662605 0.714026 -0.991170
H63   H     H_    0.803371 0.607514 0.680018 0.280790
H64   H     H_    0.818873 0.709751 0.731749 0.276749
H65   H     H_    0.734317 0.683917 0.640665 0.261272
O16   O     O_3   0.630210 0.429765 0.868727 -0.667422
C60   C     C_3   0.694199 0.392227 0.928486 0.083192
H66   H     H_    0.716853 0.348278 0.859485 0.161216
H67   H     H_    0.676381 0.354705 0.007560 0.144421
C61   C     C_3   0.762062 0.448051 0.965473 -0.395009
H68   H     H_    0.785847 0.475893 0.880507 0.224658
H69   H     H_    0.743548 0.495566 0.031509 0.249175
C62   C     C_3   0.826739 0.401816 0.029402 -0.953124
H70   H     H_    0.805576 0.374477 0.116741 0.270280
H71   H     H_    0.875212 0.443234 0.053946 0.270315
H72   H     H_    0.848567 0.354110 0.965997 0.262926
H73   H     H_    0.868432 0.624504 0.355585 0.140116
H74   H     H_    0.881466 0.374615 0.445623 0.136967
O17   O     O_3   0.105943 0.646042 0.475585 -0.621001
C63   C     C_3   0.083519 0.667342 0.598761 0.107153
H75   H     H_    0.077205 0.733370 0.602976 0.164694
H76   H     H_    0.126900 0.651842 0.670670 0.140325
C64   C     C_3   0.006529 0.628708 0.634278 -0.379845
H77   H     H_    0.960853 0.645368 0.565907 0.238994
H78   H     H_    0.012425 0.562688 0.634063 0.222282
C65   C     C_3   0.982849 0.655188 0.765474 -0.974362
H79   H     H_    0.029380 0.642172 0.834438 0.262368
H80   H     H_    0.930283 0.621897 0.793125 0.278341
H81   H     H_    0.970657 0.720287 0.767805 0.266935
O18   O     O_3   0.112053 0.360484 0.408830 -0.639707
C66   C     C_3   0.112216 0.349192 0.277544 0.093454
H82   H     H_    0.169488 0.326890 0.248034 0.138760
H83   H     H_    0.099735 0.405248 0.225979 0.132146
C67   C     C_3   0.050118 0.287440 0.241140 -0.317293
H84   H     H_    0.060406 0.231166 0.292519 0.222361
H85   H     H_    0.992580 0.310731 0.267902 0.222123
C68   C     C_3   0.049949 0.269384 0.100891 -0.982524
H86   H     H_    0.038536 0.324759 0.047824 0.268353
H87   H     H_    0.003841 0.224899 0.077502 0.267602
H88   H     H_    0.106430 0.244262 0.072614 0.274921

loop_
_geom_bond_atom_site_label_1
_geom_bond_atom_site_label_2
_geom_bond_distance
_ccdc_geom_bond_type
C41   H14   1.110088 S    
C37   C38   1.223705 T    
C40   H12   1.111522 S    
O17   C63   1.419078 S    
C13   H73   1.083734 S    
C8    C11   1.586440 S    
C66   H83   1.116162 S    
C66   H82   1.110555 S    
C9    C10   1.552074 S    
C61   C62   1.527197 S    
C64   C65   1.526886 S    
C57   C58   1.529612 S    
C60   H66   1.110906 S    
C6    H8    1.112479 S    
C31   H5    1.076464 S    
C44   H20   1.110540 S    
C67   H84   1.111528 S    
Zn1   O7    2.021164 S    
C58   H62   1.110857 S    
C48   H30   1.105705 S    
C43   H19   1.111091 S    
C39   C40   1.535915 S    
O4    C2    1.272381 A    
Zn1   N1    1.979627 S    
C4    C11   1.470730 S    
C23   O9    1.386167 S    
C65   H79   1.111086 S    
C23   C25   1.419964 A    
C61   H69   1.107143 S    
C7    H41   1.117350 S    
C18   C19   1.413270 S    
Zn2   O6    1.954120 S    
O7    C4    1.272861 A    
C62   H72   1.110888 S    
C41   H15   1.108127 S    
C33   H37   1.082981 S    
C49   C50   1.525796 S    
C53   H47   1.110567 S    
C39   H10   1.117864 S    
N1    C31   1.365393 A    
O5    C3    1.280662 A    
C51   H43   1.111531 S    
C54   C55   1.525629 S    
C63   C64   1.531996 S    
C60   H67   1.106205 S    
C63   H76   1.103950 S    
C34   H38   1.082919 S    
C50   H34   1.110874 S    
C34   C36   1.400876 A    
C67   H85   1.112318 S    
C43   C44   1.525708 S    
C49   H33   1.109164 S    
C62   H70   1.111165 S    
C59   H65   1.107365 S    
O10   C42   1.419363 S    
C20   C26   1.420503 S    
C30   O12   1.388160 S    
C67   C68   1.525527 S    
C6    H40   1.113920 S    
C52   C53   1.526202 S    
C44   H21   1.110639 S    
C41   H13   1.109986 S    
C40   C41   1.527953 S    
O9    C39   1.420197 S    
C48   H31   1.117870 S    
O1    Zn1   1.954139 S    
C11   C12   1.597924 S    
C9    H57   1.113776 S    
C5    H7    1.114131 S    
O3    Zn1   2.010123 S    
C22   O18   1.384930 S    
C64   H78   1.109628 S    
C24   O10   1.385149 S    
O11   C45   1.416668 S    
C68   H88   1.111552 S    
C14   C18   1.396042 A    
C35   C37   1.469388 S    
C15   C17   1.404934 A    
C5    C10   1.542856 S    
C58   C59   1.525453 S    
C36   C38   1.469461 S    
C54   H51   1.112145 S    
C43   H18   1.104744 S    
C12   O15   1.432735 S    
C13   C18   1.394348 A    
C9    C12   1.570181 S    
C61   H68   1.109648 S    
C68   H87   1.110946 S    
C42   H17   1.110954 S    
C27   C29   1.427970 A    
C30   N2    1.370953 A    
C46   H25   1.110873 S    
C7    C11   1.580244 S    
C39   H9    1.110325 S    
O1    C1    1.282773 A    
C63   H75   1.110821 S    
C56   H55   1.109819 S    
C31   C33   1.407212 A    
C42   C43   1.535681 S    
C19   C20   1.190377 T    
C47   H29   1.109463 S    
C28   C30   1.422471 A    
C51   H44   1.109019 S    
Zn2   O8    2.010019 S    
C49   H32   1.109287 S    
C6    C10   1.541281 S    
C59   H63   1.110496 S    
C32   H6    1.081989 S    
C29   N1    1.371887 A    
C51   C52   1.522392 S    
C54   H50   1.107977 S    
C55   C56   1.526717 S    
O3    C2    1.269837 A    
O18   C66   1.413955 S    
C50   H35   1.110400 S    
C47   H28   1.110307 S    
C48   C49   1.534285 S    
C28   C36   1.399145 A    
O15   C57   1.418458 S    
C29   O11   1.392276 S    
C66   C67   1.528205 S    
C56   H54   1.109096 S    
C8    O14   1.425811 S    
C60   C61   1.539592 S    
O14   C54   1.414402 S    
C55   H53   1.109312 S    
C52   H45   1.111469 S    
C46   C47   1.524536 S    
C3    C17   1.456791 S    
C9    H58   1.106399 S    
C5    C7    1.527257 S    
C24   C25   1.408008 A    
C22   C26   1.400327 A    
C16   H2    1.083270 S    
C65   H81   1.110667 S    
O2    Zn2   1.960012 S    
C27   H3    1.080581 S    
C14   C16   1.388585 A    
O16   C60   1.427522 S    
O6    C3    1.280318 A    
C7    O13   1.424447 S    
O4    Zn2   2.021269 S    
C57   H60   1.108950 S    
C57   H59   1.101196 S    
C59   H64   1.109558 S    
C15   H1    1.083078 S    
C45   C46   1.533143 S    
C2    C10   1.449307 S    
C58   H61   1.111938 S    
C45   H24   1.114971 S    
C21   C26   1.400798 A    
C53   H49   1.110774 S    
C5    H39   1.111934 S    
C65   H80   1.109201 S    
O2    C1    1.291853 A    
O8    C4    1.278850 A    
C56   H56   1.110926 S    
C42   H16   1.109427 S    
C68   H86   1.111330 S    
C64   H77   1.110952 S    
O13   C51   1.419485 S    
C44   H22   1.110028 S    
C27   C35   1.401055 A    
C13   C15   1.388905 A    
C28   H4    1.080066 S    
O12   C48   1.417546 S    
C21   C23   1.407670 A    
C53   H48   1.110532 S    
C22   C24   1.402059 A    
C62   H71   1.110742 S    
C8    H42   1.114467 S    
C21   O17   1.388895 S    
C40   H11   1.109734 S    
N2    C32   1.366236 A    
Zn1   O5    1.960005 S    
C46   H26   1.109790 S    
C32   C34   1.409292 A    
C50   H36   1.109322 S    
C47   H27   1.110955 S    
C1    C25   1.478834 S    
C16   C17   1.402537 A    
C6    C8    1.536469 S    
C45   H23   1.109489 S    
C12   O16   1.439942 S    
Zn2   N2    1.979637 S    
C33   C35   1.399181 A    
C14   H74   1.084042 S    
C55   H52   1.110467 S    
C52   H46   1.108267 S    
