data_mof_unit_15336.cif
_audit_creation_date              2012-12-10T18:10:19-0500
_audit_creation_method            fapswitch 2.2
_symmetry_space_group_name_H-M    P1
_symmetry_Int_Tables_number       1
_space_group_crystal_system       triclinic
_cell_length_a                    10.71774
_cell_length_b                    9.67433
_cell_length_c                    15.78774
_cell_angle_alpha                 89.803901
_cell_angle_beta                  90.43491
_cell_angle_gamma                 90.293237
_cell_volume                      1636.90469575

loop_
_atom_site_label
_atom_site_type_symbol
_atom_type_description
_atom_site_fract_x
_atom_site_fract_y
_atom_site_fract_z
_atom_type_partial_charge
C1    C     C_R   0.260596 0.499683 0.497924 0.731743
C2    C     C_3   0.618157 0.595734 0.953112 0.962175
C3    C     C_3   0.602015 0.606520 0.051211 -0.633320
C4    C     C_1   0.504914 0.499582 0.824624 -0.022096
C5    C     C_1   0.502978 0.500614 0.175598 0.019509
C6    C     C_1   0.501736 0.500584 0.251284 -0.204033
C7    C     C_3   0.073656 0.548260 0.583201 -0.376164
C8    C     C_3   0.070848 0.351725 0.478946 -0.382829
C9    C     C_3   0.929915 0.550018 0.582893 -0.392913
C10   C     C_3   0.928031 0.352586 0.477953 -0.375296
C11   C     C_3   0.071958 0.597306 0.425924 -0.379982
C12   C     C_3   0.122341 0.499224 0.496335 0.181876
C13   C     C_3   0.878001 0.500108 0.496293 0.186071
C14   C     C_R   0.500241 0.500190 0.340953 0.805282
C15   C     C_3   0.927651 0.598093 0.426055 -0.385357
C16   C     C_3   0.612090 0.083249 0.546837 0.444641
C17   C     C_3   0.604359 0.917131 0.555336 0.426329
C18   C     C_3   0.391149 0.080786 0.547662 -0.280786
C19   C     C_3   0.383756 0.917221 0.537969 -0.275592
C20   C     C_3   0.497899 0.086024 0.411130 0.388787
C21   C     C_3   0.511650 0.915931 0.411174 0.387894
C22   C     C_R   0.739354 0.500155 0.498074 0.714016
C23   C     C_R   0.500093 0.499766 0.659161 0.812611
C24   C     C_3   0.374045 0.545299 0.048236 0.408368
C25   C     C_3   0.538309 0.353200 0.049564 0.408133
C26   C     C_3   0.529045 0.351468 0.950966 -0.458956
C27   C     C_3   0.375739 0.540820 0.950089 -0.529571
C28   C     C_1   0.502219 0.499291 0.748885 -0.191431
C29   C     C_3   0.503653 0.500096 0.083161 0.064930
C30   C     C_3   0.507654 0.500887 0.916915 0.064657
Cu1   Cu    Cu3+1 0.499860 0.642410 0.500040 0.909353
Cu2   Cu    Cu3+1 0.499860 0.357590 0.500040 0.922964
H1    H     H_    0.306554 0.462626 0.927449 0.217915
H2    H     H_    0.451299 0.282346 0.930140 0.205775
H3    H     H_    0.898211 0.657201 0.595306 0.150010
H4    H     H_    0.893336 0.316426 0.415137 0.152913
H5    H     H_    0.107001 0.704478 0.436250 0.159145
H6    H     H_    0.105814 0.563200 0.362918 0.149532
H7    H     H_    0.894714 0.705468 0.436863 0.164011
H8    H     H_    0.891395 0.564860 0.363051 0.145498
H9    H     H_    0.696442 0.108530 0.509025 -0.008488
H10   H     H_    0.694574 0.874934 0.533039 0.030828
H11   H     H_    0.395669 0.106878 0.616181 0.211669
H12   H     H_    0.363756 0.869610 0.600627 0.205726
H13   H     H_    0.301803 0.127171 0.526879 0.153457
H14   H     H_    0.300855 0.890735 0.498892 0.137691
H15   H     H_    0.637665 0.334627 0.068531 0.078762
H16   H     H_    0.359196 0.654611 0.068676 0.043906
H17   H     H_    0.615197 0.305715 0.924225 0.175473
H18   H     H_    0.339885 0.638745 0.923455 0.134231
H19   H     H_    0.575727 0.712464 0.070950 0.165872
H20   H     H_    0.693015 0.587431 0.083735 0.197340
H21   H     H_    0.109828 0.653801 0.597480 0.157214
H22   H     H_    0.105317 0.313446 0.416990 0.158314
H23   H     H_    0.107731 0.478139 0.634332 0.146204
H24   H     H_    0.103649 0.278596 0.528883 0.160759
H25   H     H_    0.894447 0.483289 0.634978 0.130907
H26   H     H_    0.894534 0.277813 0.526037 0.160808
N1    N     N_3   0.500250 0.143650 0.501830 -0.191921
N2    N     N_3   0.500250 0.856350 0.501830 -0.193620
O1    O     O_R   0.317570 0.620260 0.500050 -0.600060
O2    O     O_R   0.317570 0.379740 0.500050 -0.610665
O3    O     O_R   0.499890 0.620310 0.379470 -0.586032
O4    O     O_R   0.499890 0.379690 0.379470 -0.579207
O5    O     O_R   0.682190 0.620260 0.500020 -0.610469
O6    O     O_R   0.682190 0.379740 0.500020 -0.592117
O7    O     O_R   0.499870 0.620210 0.620600 -0.535633
O8    O     O_R   0.499870 0.379790 0.620600 -0.516641
O9    O     O_3   0.620756 0.142326 0.629183 -0.513377
C31   C     C_3   0.744714 0.170585 0.655022 -0.268944
H27   H     H_    0.764830 0.281865 0.645657 0.164711
H28   H     H_    0.816348 0.107252 0.622742 0.087425
H29   H     H_    0.752867 0.149279 0.723916 0.174102
O10   O     O_3   0.585489 0.880715 0.642074 -0.529626
C32   C     C_3   0.693797 0.824812 0.680457 -0.263111
H30   H     H_    0.778437 0.887971 0.668454 0.109759
H31   H     H_    0.709535 0.717814 0.658478 0.161951
H32   H     H_    0.679839 0.820883 0.749893 0.209088
C33   C     C_3   0.369229 0.133410 0.369737 -0.738155
H33   H     H_    0.289421 0.068104 0.390032 0.163843
H34   H     H_    0.337489 0.235679 0.387595 0.268307
H35   H     H_    0.371617 0.136182 0.299360 0.215384
C34   C     C_3   0.410343 0.852212 0.346775 -0.678494
H36   H     H_    0.358636 0.918592 0.302880 0.158061
H37   H     H_    0.452878 0.793414 0.294288 0.217992
H38   H     H_    0.338570 0.788579 0.378611 0.228657
C35   C     C_3   0.604613 0.152964 0.353146 -0.755726
H39   H     H_    0.566429 0.206735 0.296542 0.239839
H40   H     H_    0.666572 0.222999 0.388578 0.239991
H41   H     H_    0.671257 0.090366 0.318440 0.166988
C36   C     C_3   0.641878 0.868630 0.374708 -0.854653
H42   H     H_    0.666174 0.761449 0.386401 0.279623
H43   H     H_    0.645213 0.876967 0.304490 0.209150
H44   H     H_    0.721935 0.927006 0.401815 0.158587
O11   O     O_3   0.279573 0.455892 0.079913 -0.506558
C37   C     C_3   0.165264 0.526651 0.086577 -0.323407
H45   H     H_    0.137060 0.574437 0.025183 0.152460
H46   H     H_    0.170750 0.606345 0.137102 0.145771
H47   H     H_    0.091633 0.451335 0.104573 0.194712
O12   O     O_3   0.456957 0.252111 0.084691 -0.511230
C38   C     C_3   0.517766 0.123510 0.092100 -0.355860
H48   H     H_    0.593848 0.128584 0.140296 0.151897
H49   H     H_    0.555011 0.088770 0.030180 0.157547
H50   H     H_    0.449164 0.044971 0.113739 0.188979
O13   O     O_3   0.631381 0.731152 0.916177 -0.601131
C39   C     C_3   0.522359 0.811420 0.910283 -0.413029
H51   H     H_    0.466527 0.810787 0.968987 0.145889
H52   H     H_    0.466695 0.781117 0.853771 0.197349
H53   H     H_    0.550928 0.920406 0.899626 0.202915
O14   O     O_3   0.732902 0.522264 0.942554 -0.621092
C40   C     C_3   0.800852 0.559838 0.869425 -0.283054
H54   H     H_    0.850105 0.659799 0.879683 0.192676
H55   H     H_    0.741559 0.565649 0.811727 0.157123
H56   H     H_    0.872748 0.480058 0.858138 0.156544

loop_
_geom_bond_atom_site_label_1
_geom_bond_atom_site_label_2
_ccdc_geom_bond_type
C23   O8    A    
C35   H39   S    
C20   C35   S    
C38   H48   S    
Cu1   O1    S    
O11   C37   S    
C24   C27   S    
C7    H23   S    
C1    O2    A    
C8    H24   S    
C19   H14   S    
C27   H1    S    
Cu1   O7    S    
C10   H26   S    
C5    C6    T    
C36   H43   S    
C39   H51   S    
C37   H47   S    
C3    C29   S    
C18   C19   S    
C23   O7    A    
C11   H5    S    
C9    C13   S    
O14   C40   S    
C22   O6    A    
C24   C29   S    
C11   C15   S    
C26   H2    S    
C21   C34   S    
C16   C17   S    
C37   H46   S    
C31   H27   S    
C25   H15   S    
C20   C33   S    
C27   H18   S    
Cu2   O8    S    
C38   H49   S    
C27   C30   S    
C1    C12   S    
C4    C28   T    
C5    C29   S    
C25   C29   S    
C7    C12   S    
O10   C32   S    
C24   H16   S    
Cu1   O3    S    
Cu2   O4    S    
C21   N2    S    
C26   H17   S    
C8    H22   S    
C36   H42   S    
C33   H34   S    
C3    H19   S    
C25   C26   S    
C16   N1    S    
Cu1   N2    S    
C11   H6    S    
C32   H30   S    
C22   O5    A    
C6    C14   S    
C25   O12   S    
C34   H36   S    
C8    C12   S    
C14   O4    A    
C37   H45   S    
C31   H29   S    
C40   H55   S    
C23   C28   S    
C20   N1    S    
C32   H31   S    
C15   H7    S    
C34   H37   S    
C26   C30   S    
C38   H50   S    
C13   C15   S    
C17   O10   S    
C24   O11   S    
C7    H21   S    
C18   H13   S    
C17   H10   S    
C19   H12   S    
Cu2   O6    S    
C21   C36   S    
Cu1   O5    S    
C2    O14   S    
C40   H54   S    
Cu1   Cu2   S    
C16   O9    S    
C10   C13   S    
C1    O1    A    
C33   H35   S    
C31   H28   S    
C3    H20   S    
C19   N2    S    
O13   C39   S    
C2    O13   S    
C2    C30   S    
C35   H40   S    
C2    C3    S    
Cu2   O2    S    
C18   H11   S    
C36   H44   S    
C39   H52   S    
C14   O3    A    
O12   C38   S    
C13   C22   S    
C40   H56   S    
C9    H25   S    
O9    C31   S    
C32   H32   S    
C15   H8    S    
C17   N2    S    
C33   H33   S    
C7    C9    S    
C18   N1    S    
C34   H38   S    
C20   C21   S    
C8    C10   S    
C35   H41   S    
C9    H3    S    
C10   H4    S    
Cu2   N1    S    
C16   H9    S    
C4    C30   S    
C11   C12   S    
C39   H53   S    
