data_mof_unit_9456.cif
_audit_creation_date              2012-12-10T20:36:40-0500
_audit_creation_method            fapswitch 2.2
_symmetry_space_group_name_H-M    P1
_symmetry_Int_Tables_number       1
_space_group_crystal_system       triclinic
_cell_length_a                    10.506095
_cell_length_b                    10.673034
_cell_length_c                    9.875822
_cell_angle_alpha                 90.076524
_cell_angle_beta                  90.272455
_cell_angle_gamma                 89.897471
_cell_volume                      1107.37950668

loop_
_atom_site_label
_atom_site_type_symbol
_atom_type_description
_atom_site_fract_x
_atom_site_fract_y
_atom_site_fract_z
_atom_type_partial_charge
C1    C     C_R   0.496613 0.260008 0.500013 0.908672
C2    C     C_R   0.483577 0.936332 0.623338 0.131503
C3    C     C_3   0.580620 0.928860 0.734290 -0.471721
C4    C     C_R   0.257389 0.499577 0.499560 0.896411
C5    C     C_3   0.581207 0.070895 0.734154 -0.469676
C6    C     C_R   0.390964 0.475130 0.070574 0.205354
C7    C     C_R   0.604671 0.535742 0.072449 -0.130583
C8    C     C_R   0.604684 0.535720 0.928621 -0.133910
C9    C     C_R   0.390894 0.475491 0.928197 0.198546
C10   C     C_3   0.313904 0.358609 0.921388 -0.465502
C11   C     C_3   0.314755 0.357552 0.075245 -0.493972
C12   C     C_3   0.957162 0.607085 0.447197 -0.161357
C13   C     C_R   0.496151 0.739979 0.500094 0.874884
C14   C     C_R   0.742596 0.499621 0.500429 0.875550
C15   C     C_3   0.041532 0.391522 0.551987 0.014349
C16   C     C_3   0.956792 0.401500 0.425203 -0.217676
C17   C     C_3   0.877435 0.498740 0.501372 0.000492
C18   C     C_3   0.959784 0.487203 0.629174 -0.191457
C19   C     C_3   0.042420 0.595574 0.574533 -0.200250
C20   C     C_2   0.091308 0.270087 0.606723 0.869834
C21   C     C_3   0.039481 0.510012 0.371186 -0.136448
C22   C     C_3   0.122417 0.498556 0.498612 -0.041242
C23   C     C_R   0.484106 0.064074 0.623221 0.116775
C24   C     C_R   0.477692 0.128558 0.500986 -0.088047
C25   C     C_R   0.447020 0.064699 0.381070 -0.182175
C26   C     C_R   0.446391 0.935135 0.381192 -0.230991
C27   C     C_R   0.476603 0.871435 0.501229 -0.109366
H1    H     H_    0.917424 0.322312 0.365278 0.149735
H2    H     H_    0.369011 0.277689 0.118957 0.211022
H3    H     H_    0.923663 0.477472 0.734133 0.161171
H4    H     H_    0.081778 0.674577 0.634727 0.148196
H5    H     H_    0.917600 0.695207 0.404539 0.134416
H6    H     H_    0.075485 0.519751 0.266227 0.143117
H7    H     H_    0.431859 0.113674 0.286434 0.165714
H8    H     H_    0.430911 0.885887 0.286569 0.174105
H9    H     H_    0.540763 0.888203 0.828563 0.207482
H10   H     H_    0.195473 0.114591 0.572894 0.341742
H11   H     H_    0.672085 0.886865 0.700405 0.202223
H12   H     H_    0.541777 0.112293 0.828421 0.204382
H13   H     H_    0.672999 0.111709 0.700173 0.211485
H14   H     H_    0.689899 0.562832 0.126748 0.153676
H15   H     H_    0.689901 0.562756 0.875192 0.148747
H16   H     H_    0.217952 0.376210 0.877649 0.230965
H17   H     H_    0.366666 0.278912 0.875493 0.216078
H18   H     H_    0.219049 0.372949 0.119791 0.206426
N1    N     N_R   0.499140 0.499140 0.142800 -0.107357
N2    N     N_R   0.499140 0.499180 0.857150 -0.106637
O1    O     O_R   0.500020 0.316790 0.614690 -0.615779
O2    O     O_R   0.168559 0.194674 0.525579 -0.819767
O3    O     O_R   0.500000 0.316760 0.385350 -0.622205
O4    O     O_R   0.313960 0.499990 0.614650 -0.627077
O5    O     O_R   0.313940 0.499950 0.385310 -0.620296
O6    O     O_R   0.500000 0.683240 0.614650 -0.617261
O7    O     O_R   0.499980 0.683210 0.385310 -0.624242
O8    O     O_R   0.686060 0.500050 0.614690 -0.631978
O9    O     O_R   0.686040 0.500010 0.385350 -0.627444
O10   O     O_2   0.063022 0.236909 0.721054 -0.651460
Zn1   Zn    Zn3+2 0.500010 0.500020 0.653130 0.946483
Zn2   Zn    Zn3+2 0.499990 0.499980 0.346870 0.946342

loop_
_geom_bond_atom_site_label_1
_geom_bond_atom_site_label_2
_ccdc_geom_bond_type
C12   C17   S    
C16   H1    S    
C15   C18   S    
C14   O9    A    
C23   C24   A    
C1    O1    A    
O1    Zn1   S    
C16   C21   S    
C18   H3    S    
O5    Zn2   S    
N1    Zn2   S    
C20   O2    S    
C4    C22   S    
C9    C10   S    
C5    C23   S    
O9    Zn2   S    
C25   H7    S    
O6    Zn1   S    
C19   H4    S    
C6    C9    A    
C7    H14   S    
C2    C3    S    
C20   O10   D    
C8    N2    A    
C7    C8    A    
O4    Zn1   S    
C21   C22   S    
C12   H5    S    
N2    Zn1   S    
C14   C17   S    
C26   C27   A    
C2    C27   A    
C3    H9    S    
C4    O5    A    
O3    Zn2   S    
C12   C19   S    
C25   C26   A    
C8    H15   S    
C14   O8    A    
C13   O6    A    
O7    Zn2   S    
C5    H12   S    
C15   C20   S    
C11   H18   S    
C9    N2    A    
C21   H6    S    
C10   C11   S    
C4    O4    A    
C10   H17   S    
C15   C16   S    
C7    N1    A    
C26   H8    S    
C6    C11   S    
C19   C22   S    
H10   O2    S    
C24   C25   A    
C11   H2    S    
C1    C24   S    
C17   C18   S    
C13   O7    A    
C1    O3    A    
O8    Zn1   S    
C2    C23   A    
C18   C19   S    
C6    N1    A    
C10   H16   S    
C5    H13   S    
C12   C21   S    
C15   C22   S    
C13   C27   S    
C3    H11   S    
C16   C17   S    
C3    C5    S    
