data_mof_unit_35493.cif
_audit_creation_date              2012-12-11T16:46:36-0500
_audit_creation_method            fapswitch 2.2
_symmetry_space_group_name_H-M    P1
_symmetry_Int_Tables_number       1
_space_group_crystal_system       triclinic
_cell_length_a                    26.179373
_cell_length_b                    7.236998
_cell_length_c                    23.864634
_cell_angle_alpha                 90.000501
_cell_angle_beta                  101.500184
_cell_angle_gamma                 89.999398
_cell_volume                      4430.62398922

loop_
_atom_site_label
_atom_site_type_symbol
_atom_type_description
_atom_site_fract_x
_atom_site_fract_y
_atom_site_fract_z
_atom_type_partial_charge
O1    O     O_R   0.547620 0.505720 0.453310 -0.527105
O2    O     O_R   0.452380 0.005720 0.546690 -0.527025
O3    O     O_R   0.442260 0.172470 0.436770 -0.541927
O4    O     O_R   0.557740 0.672470 0.563230 -0.541945
C1    C     C_R   0.076300 0.467679 0.078275 0.732330
C2    C     C_R   0.923699 0.967679 0.921725 0.732331
C3    C     C_R   0.424009 0.345109 0.421977 0.759182
C4    C     C_R   0.575991 0.845109 0.578023 0.759154
O5    O     O_R   0.546600 0.175780 0.446490 -0.543083
O6    O     O_R   0.453400 0.675780 0.553510 -0.543114
O7    O     O_R   0.557460 0.008970 0.556480 -0.523441
O8    O     O_R   0.442540 0.508970 0.443520 -0.523486
C5    C     C_R   0.561585 0.344536 0.434131 0.751836
C6    C     C_R   0.438416 0.844538 0.565871 0.751838
O9    O     O_R   0.047630 0.803580 0.953300 -0.535574
O10   O     O_R   0.952370 0.303580 0.046700 -0.535572
O11   O     O_3   0.503440 0.340340 0.536080 -0.376044
O12   O     O_3   0.496560 0.840340 0.463920 -0.376088
V1    V     V_3+5 0.499360 0.064140 0.493310 1.463896
V2    V     V_3+5 0.500640 0.564140 0.506690 1.463792
O13   O     O_R   0.057730 0.636870 0.063240 -0.538637
O14   O     O_R   0.942270 0.136870 0.936760 -0.538637
O15   O     O_3   0.996540 0.468950 0.963950 -0.376618
O16   O     O_3   0.003460 0.968950 0.036050 -0.376617
C7    C     C_R   0.126697 0.786187 0.890297 -0.156340
C8    C     C_R   0.873296 0.286215 0.109696 -0.156347
H1    H     H_    0.119521 0.664317 0.913905 0.125949
H2    H     H_    0.880462 0.164351 0.086079 0.125946
C9    C     C_R   0.162738 0.773486 0.854391 -0.150187
C10   C     C_R   0.837256 0.273523 0.145603 -0.150185
H3    H     H_    0.182449 0.643017 0.852105 0.101065
H4    H     H_    0.817537 0.143068 0.147882 0.101063
C11   C     C_R   0.173861 0.927251 0.822776 0.102106
C12   C     C_R   0.826145 0.427281 0.177229 0.102108
C13   C     C_R   0.148284 0.095211 0.828845 -0.131734
C14   C     C_R   0.851732 0.595225 0.171169 -0.131741
H5    H     H_    0.155370 0.216214 0.804829 0.120669
H6    H     H_    0.844654 0.716222 0.195193 0.120675
C15   C     C_R   0.112398 0.108357 0.865205 -0.167663
C16   C     C_R   0.887615 0.608363 0.134807 -0.167663
H7    H     H_    0.093305 0.239512 0.868504 0.128100
H8    H     H_    0.906716 0.739505 0.131515 0.128105
C17   C     C_R   0.100860 0.953546 0.896178 -0.050553
C18   C     C_R   0.899142 0.453558 0.103823 -0.050549
C19   C     C_R   0.245994 0.057966 0.778499 -0.109021
C20   C     C_R   0.754024 0.558028 0.221522 -0.109004
H9    H     H_    0.244818 0.185316 0.802008 0.113075
H10   H     H_    0.755208 0.685390 0.198022 0.113088
C21   C     C_R   0.282627 0.041030 0.743424 -0.092242
C22   C     C_R   0.717392 0.541100 0.256598 -0.092228
H11   H     H_    0.307867 0.157296 0.739907 0.121745
H12   H     H_    0.692162 0.657385 0.260125 0.121740
C23   C     C_R   0.286816 0.877307 0.712920 -0.008840
C24   C     C_R   0.713193 0.377360 0.287091 -0.008838
C25   C     C_R   0.253254 0.727257 0.718569 0.003753
C26   C     C_R   0.746745 0.227288 0.281427 0.003784
C27   C     C_R   0.215886 0.747717 0.753325 -0.131326
C28   C     C_R   0.784113 0.247743 0.246671 -0.131333
H13   H     H_    0.189807 0.634091 0.756880 0.149591
H14   H     H_    0.810183 0.134098 0.243106 0.149580
C29   C     C_R   0.212127 0.911611 0.784024 0.029407
C30   C     C_R   0.787881 0.411651 0.215984 0.029393
C31   C     C_R   0.311773 0.819100 0.617777 -0.122520
C32   C     C_R   0.688224 0.318968 0.382220 -0.122544
H15   H     H_    0.271502 0.787375 0.599332 0.126418
H16   H     H_    0.728489 0.287120 0.400657 0.126425
C33   C     C_R   0.348987 0.809737 0.583215 -0.211381
C34   C     C_R   0.651007 0.309566 0.416777 -0.211380
H17   H     H_    0.336717 0.769826 0.538801 0.109016
H18   H     H_    0.663269 0.269511 0.461179 0.109030
C35   C     C_R   0.401368 0.853835 0.605133 -0.043218
C36   C     C_R   0.598635 0.353823 0.394870 -0.043241
C37   C     C_R   0.416470 0.908176 0.663345 0.010668
C38   C     C_R   0.583546 0.408371 0.336677 0.010634
C39   C     C_R   0.378540 0.914472 0.697702 -0.226282
C40   C     C_R   0.621479 0.414712 0.302324 -0.226268
H19   H     H_    0.389843 0.953617 0.742312 0.100418
H20   H     H_    0.610183 0.454002 0.257726 0.100408
C41   C     C_R   0.326274 0.868523 0.675617 0.072722
C42   C     C_R   0.673734 0.368581 0.324394 0.072754
C43   C     C_3   0.752851 0.790905 0.806191 -0.464663
C44   C     C_3   0.247147 0.290901 0.193811 -0.464670
C45   C     C_3   0.759415 0.125817 0.784424 0.352717
C46   C     C_3   0.240583 0.625815 0.215578 0.352720
C47   C     C_3   0.710998 0.104559 0.733814 -0.346171
C48   C     C_3   0.289000 0.604557 0.266188 -0.346179
H21   H     H_    0.740577 0.825736 0.846993 0.161230
H22   H     H_    0.259420 0.325727 0.153008 0.161228
H23   H     H_    0.742440 0.149842 0.822878 0.051436
H24   H     H_    0.257557 0.649835 0.177124 0.051437
H25   H     H_    0.674700 0.138226 0.749196 0.154290
H26   H     H_    0.325298 0.638222 0.250806 0.154288
H27   H     H_    0.713383 0.206488 0.699499 0.189973
H28   H     H_    0.286615 0.706489 0.300503 0.189971
C49   C     C_1   0.621639 0.861087 0.623724 -0.151087
C50   C     C_1   0.378360 0.361087 0.376277 -0.151065
C51   C     C_3   0.790990 0.939938 0.792187 0.124468
C52   C     C_3   0.209008 0.439938 0.207815 0.124471
C53   C     C_3   0.704478 0.766484 0.757102 0.333972
C54   C     C_3   0.295520 0.266480 0.242899 0.333977
C55   C     C_3   0.707107 0.905329 0.708094 0.104773
C56   C     C_3   0.292891 0.405329 0.291908 0.104773
C57   C     C_3   0.758328 0.872557 0.685183 -0.197620
C58   C     C_3   0.241670 0.372562 0.314819 -0.197616
C59   C     C_3   0.806980 0.888318 0.734933 -0.304233
C60   C     C_3   0.193018 0.388324 0.265069 -0.304232
C61   C     C_1   0.659904 0.882824 0.661497 -0.039079
C62   C     C_1   0.340094 0.382824 0.338504 -0.039081
C63   C     C_1   0.838434 0.945316 0.839003 -0.084363
C64   C     C_1   0.161564 0.445315 0.160999 -0.084362
C65   C     C_1   0.877464 0.955008 0.876568 -0.213254
C66   C     C_1   0.122535 0.455008 0.123433 -0.213255
H29   H     H_    0.829709 0.757470 0.740641 0.180450
H30   H     H_    0.170289 0.257477 0.259361 0.180449
H31   H     H_    0.833728 0.995988 0.723985 0.165688
H32   H     H_    0.166270 0.495997 0.276018 0.165687
H33   H     H_    0.772839 0.658191 0.812934 0.169099
H34   H     H_    0.227158 0.158188 0.187069 0.169101
H35   H     H_    0.705514 0.624590 0.739015 0.117101
H36   H     H_    0.294485 0.124588 0.260987 0.117102
H37   H     H_    0.761385 0.985149 0.654183 0.118912
H38   H     H_    0.238613 0.485156 0.345820 0.118910
V3    V     V_3+5 0.000640 0.745210 0.006690 1.376222
V4    V     V_3+5 0.999360 0.245210 0.993310 1.376222
O17   O     O_R   0.057440 0.306950 0.056520 -0.531073
O18   O     O_R   0.942560 0.806950 0.943480 -0.531072
O19   O     O_R   0.953390 0.633680 0.053510 -0.538414
O20   O     O_R   0.046610 0.133680 0.946490 -0.538412
C67   C     C_R   0.937548 0.464792 0.065411 0.679666
C68   C     C_R   0.062452 0.964789 0.934589 0.679666
C69   C     C_2   0.470841 0.957006 0.690900 0.295632
H39   H     H_    0.479325 0.002218 0.735170 0.058256
O21   O     O_2   0.506780 0.946963 0.665464 -0.546296
C70   C     C_2   0.529183 0.457368 0.309138 0.295799
H40   H     H_    0.520733 0.503255 0.264937 0.058231
O22   O     O_2   0.493214 0.446644 0.334502 -0.546368
O23   O     O_3   0.658084 0.797322 0.778176 -0.567621
C71   C     C_3   0.637386 0.630249 0.795073 0.059390
H41   H     H_    0.615403 0.664460 0.829001 0.147803
H42   H     H_    0.668260 0.529689 0.814308 0.096864
C72   C     C_3   0.599674 0.543410 0.744444 -0.303715
H43   H     H_    0.570248 0.647804 0.725105 0.234332
H44   H     H_    0.621345 0.498644 0.711237 0.184569
C73   C     C_3   0.571592 0.376579 0.763154 -0.816492
H45   H     H_    0.600148 0.270918 0.783377 0.236531
H46   H     H_    0.545815 0.314097 0.725295 0.255249
H47   H     H_    0.547307 0.419488 0.794109 0.220505
O24   O     O_3   0.341914 0.297314 0.221825 -0.567613
C74   C     C_3   0.362606 0.130241 0.204919 0.059396
H48   H     H_    0.384585 0.164456 0.170988 0.147815
H49   H     H_    0.331730 0.029690 0.185684 0.096854
C75   C     C_3   0.400321 0.043379 0.255542 -0.303636
H50   H     H_    0.429751 0.147763 0.274881 0.234454
H51   H     H_    0.378654 0.998612 0.288751 0.184544
C76   C     C_3   0.428397 0.876547 0.236822 -0.816534
H52   H     H_    0.399838 0.770879 0.216610 0.236543
H53   H     H_    0.454185 0.814077 0.274676 0.255133
H54   H     H_    0.452672 0.919450 0.205856 0.220522
O25   O     O_3   0.789116 0.281795 0.773049 -0.549653
C77   C     C_3   0.826884 0.348858 0.820286 0.133594
H55   H     H_    0.838857 0.487817 0.808332 0.143812
H56   H     H_    0.863810 0.271608 0.824384 0.127119
C78   C     C_3   0.808778 0.362880 0.878302 -0.425853
H57   H     H_    0.768831 0.421269 0.872190 0.186810
H58   H     H_    0.807747 0.224117 0.897684 0.192597
C79   C     C_3   0.845269 0.482497 0.921277 -0.757792
H59   H     H_    0.886396 0.439858 0.924258 0.252841
H60   H     H_    0.835197 0.468926 0.964148 0.211142
H61   H     H_    0.840831 0.629134 0.908302 0.229423
O26   O     O_3   0.210882 0.781796 0.226953 -0.549653
C80   C     C_3   0.173114 0.848859 0.179715 0.133592
H62   H     H_    0.161140 0.987819 0.191669 0.143812
H63   H     H_    0.136187 0.771610 0.175617 0.127119
C81   C     C_3   0.191220 0.862876 0.121700 -0.425853
H64   H     H_    0.231167 0.921262 0.127812 0.186810
H65   H     H_    0.192251 0.724112 0.102317 0.192597
C82   C     C_3   0.154730 0.982494 0.078724 -0.757789
H66   H     H_    0.113603 0.939859 0.075743 0.252841
H67   H     H_    0.164802 0.968917 0.035854 0.211143
H68   H     H_    0.159168 0.129131 0.091699 0.229422
C83   C     C_2   0.757771 0.694271 0.651757 0.345143
H69   H     H_    0.744953 0.696623 0.605622 0.050362
O27   O     O_2   0.769794 0.546837 0.675635 -0.518045
C84   C     C_2   0.242228 0.194277 0.348245 0.345138
H70   H     H_    0.255045 0.196631 0.394380 0.050358
O28   O     O_2   0.230205 0.046842 0.324367 -0.518047
C85   C     C_2   0.258216 0.545708 0.691060 0.319904
H71   H     H_    0.292311 0.513673 0.673515 0.062727
O29   O     O_2   0.224280 0.428254 0.688049 -0.527338
C86   C     C_2   0.741770 0.045718 0.308916 0.319842
H72   H     H_    0.707661 0.013654 0.326430 0.062706
O30   O     O_2   0.775713 0.928281 0.311945 -0.527337

loop_
_geom_bond_atom_site_label_1
_geom_bond_atom_site_label_2
_ccdc_geom_bond_type
C28   C30   A    
C80   H62   S    
C37   C69   S    
C55   C61   S    
C86   H72   S    
C52   C64   S    
C43   H33   S    
C76   H53   S    
C44   C52   S    
C6    C35   S    
C78   H57   S    
O4    C4    A    
C7    C17   A    
C31   H15   S    
C47   H25   S    
C8    C18   A    
C15   H7    S    
C31   C41   A    
C83   H69   S    
C3    C50   S    
C80   H63   S    
O7    V1    S    
C22   C24   A    
C38   C40   A    
C60   H30   S    
C32   C34   A    
C59   H29   S    
C23   C41   S    
C46   C48   S    
O3    C3    A    
C74   H49   S    
C56   C58   S    
C21   C23   A    
C27   H13   S    
C58   H38   S    
O26   C80   S    
C28   H14   S    
C2    O14   A    
C9    C11   A    
C12   C30   S    
O11   V2    S    
C84   H70   S    
O12   V1    S    
C2    C65   S    
C19   C29   A    
O5    C5    A    
C81   H64   S    
C48   H28   S    
C63   C65   T    
C32   C42   A    
C47   H27   S    
O5    V1    S    
O6    V2    S    
C21   H11   S    
C22   H12   S    
C56   C62   S    
C54   H36   S    
C25   C85   S    
C24   C42   S    
C45   C47   S    
V4    O20   S    
C51   C59   S    
C19   H9    S    
C50   C62   T    
C55   C57   S    
C49   C61   T    
C76   H54   S    
C79   H60   S    
C37   C39   A    
C4    C49   S    
C46   H24   S    
C73   H47   S    
C58   C60   S    
C20   H10   S    
C23   C25   A    
C7    C9    A    
C3    O8    A    
C45   H23   S    
C80   C81   S    
C24   C26   A    
C10   C12   A    
C40   H20   S    
C77   C78   S    
C14   C16   A    
C78   C79   S    
O24   C74   S    
C2    O18   A    
C36   C38   A    
O6    C6    A    
C83   O27   D    
C35   C37   A    
V3    O18   S    
C70   O22   D    
C43   C53   S    
C82   H67   S    
C18   C67   S    
C46   O26   S    
O16   V3    S    
C60   H32   S    
C33   H17   S    
C32   H16   S    
O13   V3    S    
C13   C15   A    
O19   C67   A    
C31   C33   A    
C51   C63   S    
V3    O19   S    
O25   C77   S    
C75   C76   S    
C19   C21   A    
C34   C36   A    
C82   H68   S    
O8    V2    S    
C54   C56   S    
C1    O13   A    
C57   C59   S    
C26   C86   S    
O3    V1    S    
O10   C67   A    
C39   H19   S    
C81   C82   S    
C43   H21   S    
O9    V3    S    
C74   C75   S    
C73   H46   S    
C58   C84   S    
C20   C30   A    
C8    C10   A    
C25   C27   A    
C79   H59   S    
C72   C73   S    
O1    C5    A    
C44   H34   S    
C81   H65   S    
C69   H39   S    
C57   H37   S    
C47   C55   S    
O1    V2    S    
C86   O30   D    
C13   H5    S    
O2    V1    S    
C57   C83   S    
C44   C54   S    
C59   H31   S    
C17   C68   S    
C40   C42   A    
C75   H51   S    
C73   H45   S    
C69   O21   D    
C71   C72   S    
O20   C68   A    
C15   C17   A    
C27   C29   A    
O15   V4    S    
C71   H42   S    
C5    C36   S    
C7    H1    S    
C1    C66   S    
O23   C71   S    
C20   C22   A    
C70   H40   S    
C8    H2    S    
C52   C60   S    
C46   C52   S    
O14   V4    S    
C72   H44   S    
O10   V4    S    
C85   H71   S    
C9    H3    S    
C48   H26   S    
C72   H43   S    
C77   H55   S    
C14   H6    S    
C10   H4    S    
O9    C68   A    
C43   C51   S    
C54   O24   S    
C4    O7    A    
C44   H22   S    
C38   C70   S    
C16   H8    S    
C11   C13   A    
C12   C14   A    
C26   C28   A    
C84   O28   D    
C33   C35   A    
O2    C6    A    
C64   C66   T    
C85   O29   D    
C71   H41   S    
C53   H35   S    
O4    V2    S    
C16   C18   A    
C45   O25   S    
C75   H50   S    
C79   H61   S    
C11   C29   S    
C82   H66   S    
C45   C51   S    
C1    O17   A    
C76   H52   S    
C34   H18   S    
C53   O23   S    
C78   H58   S    
C74   H48   S    
C39   C41   A    
C53   C55   S    
C77   H56   S    
V4    O17   S    
C48   C56   S    
