data_mof_unit_53893.cif
_audit_creation_date              2012-12-10T17:50:31-0500
_audit_creation_method            fapswitch 2.2
_symmetry_space_group_name_H-M    P1
_symmetry_Int_Tables_number       1
_space_group_crystal_system       triclinic
_cell_length_a                    15.69841
_cell_length_b                    10.599267
_cell_length_c                    9.981843
_cell_angle_alpha                 90.033165
_cell_angle_beta                  90.48898
_cell_angle_gamma                 91.878185
_cell_volume                      1659.94186533

loop_
_atom_site_label
_atom_site_type_symbol
_atom_type_description
_atom_site_fract_x
_atom_site_fract_y
_atom_site_fract_z
_atom_type_partial_charge
C1    C     C_R   0.501143 0.261086 0.500064 0.852568
C2    C     C_R   0.738032 0.074829 0.532717 -0.135869
C3    C     C_R   0.737370 0.943458 0.532311 -0.109916
C4    C     C_R   0.338225 0.499702 0.499489 0.882536
C5    C     C_R   0.660279 0.874776 0.521580 -0.150898
C6    C     C_R   0.582175 0.937335 0.511279 0.069137
C7    C     C_R   0.582986 0.069369 0.511529 0.093719
C8    C     C_R   0.504561 0.129009 0.500326 -0.096098
C9    C     C_R   0.427022 0.062882 0.489646 -0.264399
C10   C     C_R   0.425481 0.933512 0.489195 -0.003567
C11   C     C_R   0.502811 0.871749 0.500113 -0.136485
C12   C     C_3   0.083052 0.498617 0.499394 0.145778
C13   C     C_R   0.357778 0.393432 0.134144 0.267852
C14   C     C_R   0.279977 0.405410 0.066217 -0.241967
C15   C     C_R   0.280233 0.403911 0.926859 -0.236809
C16   C     C_R   0.500128 0.738938 0.500002 0.871818
C17   C     C_R   0.358311 0.391450 0.861960 0.271290
C18   C     C_R   0.431986 0.444014 0.927149 0.075456
C19   C     C_R   0.431745 0.444865 0.070907 0.095301
C20   C     C_R   0.564192 0.555312 0.072829 -0.142810
C21   C     C_R   0.563803 0.557126 0.930320 0.015678
C22   C     C_R   0.661797 0.500924 0.500538 0.868140
C23   C     C_3   0.974288 0.603249 0.439895 0.009212
C24   C     C_3   0.973040 0.497828 0.628970 -0.215101
C25   C     C_3   0.026160 0.394356 0.562263 -0.170166
C26   C     C_1   0.249287 0.498272 0.498495 -0.162212
C27   C     C_1   0.750735 0.500842 0.501804 -0.175883
C28   C     C_3   0.031207 0.600838 0.565108 0.001354
C29   C     C_1   0.344003 0.866157 0.478066 0.171036
C30   C     C_3   0.362931 0.271985 0.212203 -0.806213
C31   C     C_3   0.363878 0.269836 0.784242 -0.802848
C32   C     C_1   0.631008 0.627281 0.863907 0.239901
C33   C     C_1   0.944112 0.717215 0.373509 0.147692
C34   C     C_3   0.916993 0.500219 0.502013 0.144999
C35   C     C_1   0.067329 0.712064 0.635638 0.171964
C36   C     C_3   0.027000 0.501095 0.372449 -0.204691
C37   C     C_3   0.968388 0.396781 0.435557 -0.162424
C38   C     C_1   0.173949 0.497802 0.498454 -0.052873
C39   C     C_1   0.826067 0.500531 0.502415 -0.058832
C40   C     C_R   0.661591 0.137744 0.522421 -0.164485
H1    H     H_    0.049636 0.308408 0.612091 0.143492
H2    H     H_    0.367779 0.112590 0.482245 0.134874
H3    H     H_    0.664515 0.239659 0.523000 0.128029
H4    H     H_    0.797869 0.128149 0.540922 0.140781
H5    H     H_    0.315812 0.199772 0.173756 0.208336
H6    H     H_    0.425746 0.228998 0.198448 0.248854
H7    H     H_    0.347815 0.285432 0.319026 0.235624
H8    H     H_    0.348707 0.282758 0.676877 0.235914
H9    H     H_    0.426862 0.227396 0.799799 0.248351
H10   H     H_    0.316997 0.197477 0.821722 0.208283
H11   H     H_    0.796686 0.894598 0.540282 0.151691
H12   H     H_    0.662441 0.772934 0.521303 0.130255
H13   H     H_    0.616106 0.601683 0.127805 0.154738
H14   H     H_    0.220689 0.381105 0.116293 0.162935
H15   H     H_    0.221163 0.378536 0.875063 0.163321
H16   H     H_    0.949223 0.497006 0.733394 0.150331
H17   H     H_    0.940384 0.312775 0.382860 0.144134
H18   H     H_    0.050898 0.502770 0.268062 0.145270
N1    N     N_R   0.499210 0.498800 0.142780 -0.112585
N2    N     N_R   0.499180 0.498720 0.857170 -0.130403
N3    N     N_1   0.278763 0.812634 0.469112 -0.198948
N4    N     N_1   0.685259 0.684530 0.811632 -0.214060
N5    N     N_1   0.920275 0.807021 0.321261 -0.208204
N6    N     N_1   0.095853 0.799713 0.691164 -0.193343
O1    O     O_R   0.500000 0.316780 0.614690 -0.621482
O2    O     O_R   0.499990 0.316750 0.385360 -0.617166
O3    O     O_R   0.376780 0.500000 0.614650 -0.609388
O4    O     O_R   0.376770 0.499980 0.385310 -0.608378
O5    O     O_R   0.500010 0.683250 0.614640 -0.607613
O6    O     O_R   0.500000 0.683220 0.385310 -0.607987
O7    O     O_R   0.623230 0.500020 0.614690 -0.608741
O8    O     O_R   0.623220 0.500000 0.385350 -0.614491
Zn1   Zn    Zn3+2 0.500010 0.500020 0.653130 0.961102
Zn2   Zn    Zn3+2 0.499990 0.499980 0.346870 0.955589

loop_
_geom_bond_atom_site_label_1
_geom_bond_atom_site_label_2
_ccdc_geom_bond_type
C34   C37   S    
C30   H5    S    
C7    C8    A    
C9    H2    S    
C12   C28   S    
C36   C37   S    
C36   H18   S    
C5    C6    A    
O4    Zn2   S    
C1    C8    S    
N2    Zn1   S    
O1    Zn1   S    
C18   C19   A    
C25   C37   S    
C40   H3    S    
C28   C35   S    
C2    H4    S    
C8    C9    A    
C23   C33   S    
O6    Zn2   S    
C1    O1    A    
C7    C40   A    
C5    H12   S    
O5    Zn1   S    
C35   N6    T    
O3    Zn1   S    
C12   C36   S    
C9    C10   A    
C13   C14   A    
C31   H9    S    
C22   O8    A    
C17   C18   A    
C21   C32   S    
C29   N3    T    
C13   C19   A    
C27   C39   T    
C34   C39   S    
C30   H7    S    
C16   O6    A    
C24   C25   S    
C21   N2    A    
O8    Zn2   S    
C25   H1    S    
C6    C11   A    
C4    O4    A    
C3    H11   S    
C26   C38   T    
C19   N1    A    
C24   C34   S    
C15   H15   S    
C11   C16   S    
C13   C30   S    
C33   N5    T    
C23   C34   S    
C1    O2    A    
C23   C28   S    
C20   N1    A    
N1    Zn2   S    
C18   N2    A    
C14   H14   S    
C31   H8    S    
C17   C31   S    
C31   H10   S    
C22   O7    A    
O7    Zn1   S    
C15   C17   A    
C30   H6    S    
C16   O5    A    
C24   C28   S    
C20   H13   S    
C3    C5    A    
C4    O3    A    
C4    C26   S    
C6    C7    A    
C24   H16   S    
C12   C25   S    
C22   C27   S    
C2    C3    A    
C32   N4    T    
C10   C29   S    
C12   C38   S    
C10   C11   A    
C2    C40   A    
C20   C21   A    
C23   C36   S    
C14   C15   A    
C37   H17   S    
O2    Zn2   S    
