data_mof_unit_65798.cif
_audit_creation_date              2012-10-26T18:11:53-0400
_audit_creation_method            fapswitch 2.2
_symmetry_space_group_name_H-M    P1
_symmetry_Int_Tables_number       1
_space_group_crystal_system       triclinic
_cell_length_a                    18.777883
_cell_length_b                    18.808273
_cell_length_c                    18.768159
_cell_angle_alpha                 109.468704
_cell_angle_beta                  109.443645
_cell_angle_gamma                 109.335674
_cell_volume                      5113.04315037

loop_
_atom_site_label
_atom_site_type_symbol
_atom_type_description
_atom_site_fract_x
_atom_site_fract_y
_atom_site_fract_z
_atom_type_partial_charge
C1    C     C_R   0.380948 0.499888 0.381087 0.558948
C2    C     C_R   0.313924 0.499827 0.314248 0.020883
C3    C     C_R   0.337084 0.271983 0.543109 -0.187522
C4    C     C_R   0.618812 0.618673 0.499745 0.542216
C5    C     C_R   0.273556 0.208680 0.544070 -0.149491
C6    C     C_R   0.186236 0.187027 0.500157 -0.023826
C7    C     C_R   0.163383 0.230165 0.455928 -0.124935
C8    C     C_R   0.227601 0.296130 0.457255 0.250513
C9    C     C_R   0.314146 0.315208 0.499709 0.047795
C10   C     C_R   0.757122 0.499094 0.677841 -0.133012
C11   C     C_R   0.822033 0.500681 0.742765 -0.135370
C12   C     C_R   0.777226 0.834488 0.548412 -0.055464
C13   C     C_R   0.814252 0.500140 0.814256 0.026356
C14   C     C_R   0.742209 0.499483 0.821468 -0.132550
C15   C     C_R   0.678801 0.500901 0.758048 -0.134404
C16   C     C_R   0.618936 0.499992 0.618925 0.541292
C17   C     C_R   0.685848 0.499976 0.685827 0.028011
C18   C     C_R   0.999905 0.881051 0.381042 0.547468
C19   C     C_R   0.881597 0.881988 0.500461 0.565254
C20   C     C_R   0.999598 0.118562 0.618892 0.582168
C21   C     C_R   0.119104 0.119292 0.500001 0.550224
C22   C     C_R   0.999874 0.618898 0.118934 0.546093
C23   C     C_3   0.778344 0.908130 0.612537 -0.226609
C24   C     C_R   0.118866 0.500094 0.119048 0.547434
C25   C     C_R   0.000188 0.381268 0.881295 0.549795
C26   C     C_R   0.881123 0.500101 0.881180 0.545431
C27   C     C_R   0.999091 0.821052 0.241956 -0.130373
C28   C     C_R   0.381348 0.381406 0.500115 0.590458
C29   C     C_R   0.000516 0.757656 0.178586 -0.132028
C30   C     C_R   0.999592 0.685631 0.185741 0.026121
C31   C     C_R   0.998652 0.677811 0.257099 -0.134032
C32   C     C_R   0.000235 0.742714 0.321990 -0.135364
C33   C     C_R   0.999765 0.814041 0.314113 0.027433
C34   C     C_3   0.706535 0.837652 0.612306 0.159010
C35   C     C_R   0.919530 0.176182 0.679993 0.247454
C36   C     C_R   0.920875 0.239867 0.746463 -0.120936
C37   C     C_R   0.999834 0.314445 0.813887 -0.018817
C38   C     C_R   0.078227 0.324482 0.816997 -0.151794
C39   C     C_R   0.077859 0.259162 0.753884 -0.185400
C40   C     C_R   0.714289 0.772117 0.547449 -0.000766
C41   C     C_R   0.998868 0.185166 0.685477 0.036124
C42   C     C_R   0.685189 0.684334 0.498442 -0.010067
C43   C     C_R   0.723093 0.661706 0.446952 -0.153789
C44   C     C_R   0.788174 0.726781 0.447421 -0.152750
C45   C     C_R   0.242589 0.420908 0.242589 -0.125748
C46   C     C_R   0.815848 0.814850 0.499228 0.027925
C47   C     C_3   0.171877 0.385902 0.446816 -0.012163
C48   C     C_3   0.167838 0.445593 0.409182 -0.357811
C49   C     C_3   0.790665 0.120043 0.558344 -0.002284
C50   C     C_3   0.711679 0.035450 0.480309 -0.372974
C51   C     C_3   0.577324 0.805025 0.493711 0.012732
C52   C     C_3   0.505278 0.828012 0.475637 -0.378288
C53   C     C_R   0.177716 0.421003 0.179303 -0.139170
C54   C     C_R   0.185627 0.500004 0.186067 0.024950
C55   C     C_R   0.257543 0.578902 0.257202 -0.135606
C56   C     C_R   0.320806 0.578764 0.322008 -0.146964
Cu1   Cu    Cu3+1 0.499970 0.561780 0.561770 0.952060
Cu2   Cu    Cu3+1 0.500030 0.438220 0.438230 0.937561
Cu3   Cu    Cu3+1 0.061810 0.000000 0.561760 0.934165
Cu4   Cu    Cu3+1 0.938190 0.000070 0.438240 0.922797
Cu5   Cu    Cu3+1 0.938200 0.438300 0.000110 0.930670
Cu6   Cu    Cu3+1 0.061800 0.561880 0.000070 0.927547
H1    H     H_    0.375746 0.639934 0.377326 0.113210
H2    H     H_    0.860417 0.231535 0.745079 0.127702
H3    H     H_    0.139667 0.381815 0.869278 0.136793
H4    H     H_    0.138990 0.266855 0.757549 0.127321
H5    H     H_    0.840808 0.948438 0.675347 0.123668
H6    H     H_    0.728683 0.838161 0.675359 0.139098
H7    H     H_    0.236476 0.359566 0.236575 0.144288
H8    H     H_    0.122293 0.359698 0.124398 0.126458
H9    H     H_    0.703135 0.594392 0.406901 0.140150
H10   H     H_    0.095938 0.212496 0.420123 0.130920
H11   H     H_    0.213647 0.427209 0.519112 0.132668
H12   H     H_    0.404238 0.287635 0.576511 0.114295
H13   H     H_    0.104693 0.342533 0.429871 0.123002
H14   H     H_    0.127599 0.406816 0.336973 0.165809
H15   H     H_    0.138458 0.482705 0.434945 0.091761
H16   H     H_    0.234423 0.492193 0.427888 0.176297
H17   H     H_    0.877417 0.500803 0.736584 0.119323
H18   H     H_    0.999019 0.876209 0.235586 0.124695
H19   H     H_    0.000899 0.763970 0.123383 0.124168
H20   H     H_    0.827702 0.155178 0.533817 0.138667
H21   H     H_    0.767135 0.159824 0.591713 0.122404
H22   H     H_    0.671292 0.000427 0.502148 0.146389
H23   H     H_    0.292663 0.176006 0.578228 0.145775
H24   H     H_    0.671666 0.049453 0.434196 0.093805
H25   H     H_    0.732900 0.993447 0.446186 0.170996
H26   H     H_    0.756303 0.944901 0.583886 0.196655
H27   H     H_    0.546801 0.733035 0.458718 0.146753
H28   H     H_    0.617649 0.832663 0.467698 0.122426
H29   H     H_    0.533897 0.899735 0.508790 0.157105
H30   H     H_    0.465263 0.800648 0.404399 0.089181
H31   H     H_    0.462807 0.800770 0.499929 0.163323
H32   H     H_    0.263859 0.640298 0.263198 0.120832
H33   H     H_    0.763143 0.498704 0.622285 0.120023
H34   H     H_    0.735928 0.499369 0.876769 0.122830
H35   H     H_    0.623634 0.501213 0.764451 0.119620
H36   H     H_    0.816654 0.708509 0.407778 0.111078
H37   H     H_    0.998282 0.622432 0.263239 0.120040
H38   H     H_    0.000345 0.736676 0.377454 0.117726
O1    O     O_R   0.409790 0.552170 0.461990 -0.513884
O2    O     O_R   0.052170 0.642450 0.090210 -0.510466
O3    O     O_R   0.038000 0.447920 0.090280 -0.511546
O4    O     O_R   0.409840 0.447810 0.357660 -0.505347
O5    O     O_R   0.142370 0.552280 0.090250 -0.510303
O6    O     O_R   0.947830 0.357730 0.909970 -0.508675
O7    O     O_R   0.052200 0.462090 0.909940 -0.510481
O8    O     O_R   0.857630 0.447900 0.909930 -0.511095
O9    O     O_R   0.962000 0.552260 0.909900 -0.510436
O10   O     O_R   0.590140 0.642360 0.552170 -0.494341
O11   O     O_R   0.590190 0.538010 0.447840 -0.521250
O12   O     O_R   0.947790 0.909920 0.357650 -0.511125
O13   O     O_R   0.590160 0.552190 0.642340 -0.513531
O14   O     O_R   0.590210 0.447830 0.538010 -0.516267
O15   O     O_R   0.409810 0.461990 0.552160 -0.510213
O16   O     O_R   0.409860 0.357640 0.447830 -0.503068
O17   O     O_R   0.052180 0.909860 0.461960 -0.511061
O18   O     O_3   0.206098 0.336682 0.410701 -0.560176
O19   O     O_3   0.842167 0.100805 0.614783 -0.569392
O20   O     O_3   0.626487 0.838816 0.584614 -0.538792
O21   O     O_R   0.962030 0.909820 0.552150 -0.508057
O22   O     O_R   0.857630 0.909880 0.447840 -0.509265
O23   O     O_R   0.052210 0.090150 0.642360 -0.515538
O24   O     O_R   0.947820 0.090210 0.538040 -0.493924
O25   O     O_R   0.142360 0.090190 0.552160 -0.513496
O26   O     O_R   0.037970 0.090250 0.447850 -0.520878
O27   O     O_R   0.947800 0.538090 0.090240 -0.511228

loop_
_geom_bond_atom_site_label_1
_geom_bond_atom_site_label_2
_ccdc_geom_bond_type
Cu3   O21   S    
C55   C56   A    
C19   O22   A    
C27   C29   A    
C48   H14   S    
C35   O19   S    
C35   C36   A    
C16   O13   A    
C20   C41   S    
Cu1   Cu2   S    
C19   C46   S    
C8    O18   S    
C7    C8    A    
Cu1   O15   S    
Cu6   O5    S    
C49   O19   S    
C53   C54   A    
C27   C33   A    
C12   C23   S    
C29   C30   A    
C3    C9    A    
C36   C37   A    
Cu5   O3    S    
C18   O12   A    
C51   H28   S    
C30   C31   A    
C10   C17   A    
C23   H5    S    
C1    C2    S    
C48   H16   S    
Cu4   O24   S    
Cu5   O8    S    
C20   O23   A    
C28   O16   A    
C25   C37   S    
C44   H36   S    
C47   O18   S    
C47   C48   S    
C8    C9    A    
C18   O17   A    
C31   H37   S    
C5    H23   S    
C40   C42   A    
C45   C53   A    
Cu3   Cu4   S    
Cu3   O17   S    
C13   C14   A    
Cu2   O16   S    
C15   H35   S    
C55   H32   S    
C53   H8    S    
C14   H34   S    
C44   C46   A    
C25   O6    A    
C2    C45   A    
Cu3   O23   S    
C38   C39   A    
C50   H22   S    
C51   C52   S    
C47   H11   S    
C39   C41   A    
C27   H18   S    
C34   H6    S    
C7    H10   S    
C16   C17   S    
Cu1   O13   S    
Cu6   O7    S    
C6    C21   S    
C45   H7    S    
C32   H38   S    
C3    H12   S    
C49   H20   S    
C12   C40   A    
C43   C44   A    
C29   H19   S    
C37   C38   A    
Cu4   O12   S    
C28   O15   A    
Cu1   O10   S    
C26   O9    A    
C38   H3    S    
C23   C34   S    
C48   H15   S    
C51   O20   S    
C56   H1    S    
C52   H31   S    
Cu5   O27   S    
Cu4   O22   S    
Cu5   O6    S    
C1    O4    A    
C11   H17   S    
C50   H25   S    
C12   C46   A    
C4    O11   A    
C23   H26   S    
C39   H4    S    
C34   C40   S    
C13   C26   S    
C52   H30   S    
Cu2   O4    S    
C42   C43   A    
C21   O25   A    
C1    O1    A    
C25   O7    A    
C15   C17   A    
C4    O10   A    
C54   C55   A    
C19   O21   A    
C43   H9    S    
C22   C30   S    
C31   C32   A    
C3    C5    A    
C16   O14   A    
Cu2   O11   S    
C6    C7    A    
Cu3   O25   S    
Cu1   O1    S    
C22   O2    A    
C24   O3    A    
C32   C33   A    
C49   H21   S    
Cu4   O26   S    
C47   H13   S    
C2    C56   A    
C51   H27   S    
C11   C13   A    
C22   O27   A    
C5    C6    A    
Cu6   O9    S    
C4    C42   S    
C10   H33   S    
Cu5   Cu6   S    
C35   C41   A    
C18   C33   S    
C20   O24   A    
C10   C11   A    
C50   H24   S    
C34   O20   S    
C49   C50   S    
Cu2   O14   S    
C14   C15   A    
C52   H29   S    
C24   O5    A    
C21   O26   A    
C36   H2    S    
C24   C54   S    
C26   O8    A    
C9    C28   S    
Cu6   O2    S    
