data_mof_unit_47153.cif
_audit_creation_date              2012-12-11T16:47:50-0500
_audit_creation_method            fapswitch 2.2
_symmetry_space_group_name_H-M    P1
_symmetry_Int_Tables_number       1
_space_group_crystal_system       triclinic
_cell_length_a                    26.140042
_cell_length_b                    7.174292
_cell_length_c                    23.921055
_cell_angle_alpha                 90.089276
_cell_angle_beta                  101.579209
_cell_angle_gamma                 89.880787
_cell_volume                      4394.75377683

loop_
_atom_site_label
_atom_site_type_symbol
_atom_type_description
_atom_site_fract_x
_atom_site_fract_y
_atom_site_fract_z
_atom_type_partial_charge
O1    O     O_R   0.797620 0.601060 0.203310 -0.517904
O2    O     O_R   0.202380 0.398940 0.796690 -0.504189
O3    O     O_R   0.702380 0.101060 0.296690 -0.503415
O4    O     O_R   0.297620 0.898940 0.703310 -0.504425
O5    O     O_R   0.692070 0.267810 0.186600 -0.536563
O6    O     O_R   0.307930 0.732190 0.813400 -0.538322
O7    O     O_R   0.807930 0.767810 0.313400 -0.527889
O8    O     O_R   0.192070 0.232190 0.686600 -0.538515
C1    C     C_R   0.673743 0.439757 0.171535 0.693811
C2    C     C_R   0.326159 0.560204 0.828590 0.703764
C3    C     C_R   0.826248 0.939684 0.328478 0.708826
C4    C     C_R   0.173837 0.060280 0.671414 0.703401
O9    O     O_R   0.796590 0.271120 0.196480 -0.553597
O10   O     O_R   0.203410 0.728880 0.803520 -0.543564
O11   O     O_R   0.703410 0.771120 0.303520 -0.544069
O12   O     O_R   0.296590 0.228880 0.696480 -0.543613
O13   O     O_R   0.807640 0.104280 0.306650 -0.534014
O14   O     O_R   0.192360 0.895720 0.693350 -0.532158
O15   O     O_R   0.692360 0.604280 0.193350 -0.534729
O16   O     O_R   0.307640 0.395720 0.806650 -0.532277
C5    C     C_R   0.812793 0.439792 0.184927 0.751806
C6    C     C_R   0.188112 0.559612 0.816503 0.729928
C7    C     C_R   0.687390 0.940455 0.315556 0.733700
C8    C     C_R   0.311724 0.059154 0.683456 0.731108
O17   O     O_3   0.753500 0.435660 0.286130 -0.360882
O18   O     O_3   0.246500 0.564340 0.713870 -0.370011
O19   O     O_3   0.746500 0.935660 0.213870 -0.383482
O20   O     O_3   0.253500 0.064340 0.786130 -0.370109
V1    V     V_3+5 0.749350 0.159470 0.243300 1.434597
V2    V     V_3+5 0.250650 0.840530 0.756700 1.463048
V3    V     V_3+5 0.750650 0.659470 0.256700 1.459675
V4    V     V_3+5 0.249350 0.340530 0.743300 1.462545
C9    C     C_R   0.361747 0.870776 0.621601 0.481482
C10   C     C_R   0.625508 0.122401 0.365532 0.472701
C11   C     C_R   0.137864 0.373050 0.878468 0.482756
C12   C     C_R   0.891136 0.587642 0.155994 0.456767
C13   C     C_R   0.399787 0.860797 0.587988 -0.313128
C14   C     C_R   0.590140 0.126453 0.402636 -0.330606
C15   C     C_R   0.099757 0.363910 0.912089 -0.315815
C16   C     C_R   0.927647 0.593419 0.119980 -0.291660
H1    H     H_    0.411871 0.725751 0.575390 0.207381
H2    H     H_    0.573118 0.258113 0.411607 0.202225
H3    H     H_    0.087863 0.229324 0.924883 0.205152
H4    H     H_    0.959115 0.693993 0.128111 0.141515
C17   C     C_R   0.422034 0.021847 0.570423 -0.039267
C18   C     C_R   0.575647 0.962906 0.427086 -0.016943
C19   C     C_R   0.077109 0.525126 0.929321 -0.036173
C20   C     C_R   0.924158 0.469883 0.073940 0.011725
C21   C     C_R   0.404963 0.197092 0.586310 0.561203
C22   C     C_R   0.598402 0.792600 0.416014 0.546582
C23   C     C_R   0.093663 0.699988 0.912854 0.560922
C24   C     C_R   0.884749 0.333549 0.064839 0.504814
C25   C     C_R   0.370164 0.207541 0.624033 -0.333944
C26   C     C_R   0.634406 0.787683 0.379581 -0.351675
C27   C     C_R   0.128783 0.709614 0.875338 -0.332018
C28   C     C_R   0.848693 0.324854 0.101354 -0.358382
H5    H     H_    0.359976 0.343335 0.638115 0.212216
H6    H     H_    0.651165 0.654721 0.371605 0.206045
H7    H     H_    0.138692 0.845057 0.860937 0.211936
H8    H     H_    0.817807 0.221984 0.093205 0.152612
C29   C     C_R   0.348287 0.045505 0.642731 -0.229699
C30   C     C_R   0.648933 0.951273 0.354204 -0.213364
C31   C     C_R   0.151221 0.547189 0.857111 -0.229702
C32   C     C_R   0.851582 0.450224 0.147172 -0.190901
C33   C     C_R   0.511982 0.086043 0.551432 0.548450
C34   C     C_R   0.487186 0.889907 0.447616 0.549302
C35   C     C_R   0.986021 0.577699 0.947008 0.529670
C36   C     C_R   0.014122 0.411646 0.055479 0.487201
C37   C     C_R   0.548455 0.072091 0.515812 -0.337068
C38   C     C_R   0.450554 0.904954 0.483021 -0.356152
C39   C     C_R   0.949514 0.563693 0.982682 -0.299789
C40   C     C_R   0.050377 0.422317 0.019197 -0.355347
H9    H     H_    0.586365 0.136889 0.528840 0.147174
H10   H     H_    0.412393 0.842514 0.469475 0.141489
H11   H     H_    0.910437 0.618240 0.968192 0.151579
H12   H     H_    0.089211 0.365145 0.033064 0.138965
C41   C     C_R   0.536714 0.972693 0.464308 -0.012239
C42   C     C_R   0.462167 0.004711 0.534551 -0.019613
C43   C     C_R   0.963111 0.480467 0.036652 -0.003841
C44   C     C_R   0.037180 0.508836 0.965596 -0.009033
C45   C     C_3   0.960433 0.935090 0.522137 -0.260745
C46   C     C_3   0.040134 0.064700 0.477166 -0.262821
C47   C     C_3   0.539506 0.433636 0.977974 -0.256795
C48   C     C_3   0.459864 0.566134 0.022812 -0.265537
C49   C     C_3   0.990205 0.121442 0.539646 -0.265132
C50   C     C_3   0.010350 0.878353 0.459645 -0.264942
C51   C     C_3   0.509790 0.620210 0.960244 -0.263212
C52   C     C_3   0.489593 0.379564 0.040555 -0.272424
H13   H     H_    0.982094 0.221072 0.572343 0.151445
H14   H     H_    0.018454 0.778734 0.426941 0.152730
H15   H     H_    0.517920 0.718841 0.927418 0.151306
H16   H     H_    0.481474 0.280948 0.073391 0.144714
H17   H     H_    0.928039 0.878065 0.540617 0.136833
H18   H     H_    0.072533 0.121719 0.458692 0.133120
H19   H     H_    0.571879 0.375431 0.959556 0.138392
H20   H     H_    0.427487 0.624332 0.041224 0.130126
C53   C     C_1   0.128165 0.050367 0.625424 -0.187308
C54   C     C_1   0.872125 0.949515 0.374212 -0.170976
C55   C     C_1   0.371820 0.550154 0.874585 -0.187717
C56   C     C_1   0.627856 0.449712 0.125827 -0.192775
C57   C     C_3   0.013363 0.837062 0.523654 0.560289
C58   C     C_3   0.987201 0.162735 0.475641 0.558940
C59   C     C_3   0.486552 0.336745 0.976596 0.562978
C60   C     C_3   0.512823 0.663032 0.024198 0.557769
C61   C     C_3   0.042660 0.019863 0.541091 0.026096
C62   C     C_3   0.957896 0.979940 0.458210 0.024267
C63   C     C_3   0.457310 0.519756 0.958942 0.027267
C64   C     C_3   0.542073 0.480024 0.041845 0.026997
C65   C     C_1   0.089736 0.038452 0.587312 -0.016178
C66   C     C_1   0.910709 0.961377 0.412129 -0.012298
C67   C     C_1   0.410242 0.538254 0.912707 -0.017047
C68   C     C_1   0.589263 0.461552 0.087923 -0.019772
O21   O     O_3   0.339474 0.706597 0.634948 -0.537675
C69   C     C_3   0.294762 0.671608 0.592296 -0.208778
H21   H     H_    0.304722 0.659343 0.549350 0.101947
H22   H     H_    0.264612 0.781718 0.591819 0.111301
H23   H     H_    0.277437 0.537186 0.601784 0.154097
O22   O     O_3   0.639058 0.288227 0.343007 -0.543491
C70   C     C_3   0.598514 0.341450 0.297519 -0.201477
H24   H     H_    0.562617 0.380395 0.313130 0.144685
H25   H     H_    0.589804 0.229912 0.264538 0.113090
H26   H     H_    0.611316 0.466169 0.276670 0.149827
O23   O     O_3   0.160242 0.208440 0.865254 -0.537649
C71   C     C_3   0.204999 0.173792 0.907895 -0.210450
H27   H     H_    0.195167 0.163515 0.950933 0.100019
H28   H     H_    0.235190 0.283053 0.908011 0.111809
H29   H     H_    0.222196 0.038478 0.898674 0.154276
O24   O     O_3   0.897363 0.701817 0.203646 -0.549417
C72   C     C_3   0.887252 0.888420 0.186278 -0.174653
H30   H     H_    0.848814 0.903329 0.156502 0.120578
H31   H     H_    0.919105 0.945447 0.166846 0.120939
H32   H     H_    0.885616 0.974024 0.224540 0.157338
O25   O     O_3   0.422985 0.359667 0.566272 -0.527706
C73   C     C_3   0.393916 0.392861 0.510755 -0.261804
H33   H     H_    0.351948 0.416135 0.511303 0.113564
H34   H     H_    0.398026 0.277739 0.480789 0.134864
H35   H     H_    0.409115 0.520134 0.493748 0.174677
O26   O     O_3   0.583925 0.629380 0.439145 -0.536302
C74   C     C_3   0.622513 0.583644 0.487314 -0.249546
H36   H     H_    0.609253 0.460029 0.508187 0.172016
H37   H     H_    0.628485 0.698766 0.519266 0.128261
H38   H     H_    0.660022 0.546380 0.474842 0.138270
O27   O     O_3   0.074564 0.862827 0.931863 -0.528939
C75   C     C_3   0.103112 0.900775 0.987339 -0.279368
H39   H     H_    0.144878 0.927806 0.986833 0.119446
H40   H     H_    0.099975 0.786542 0.017803 0.134479
H41   H     H_    0.086707 0.027326 0.003760 0.172401
O28   O     O_3   0.879751 0.216710 0.018024 -0.548869
C76   C     C_3   0.897179 0.037010 0.036707 -0.227718
H42   H     H_    0.899313 0.950772 0.998751 0.176169
H43   H     H_    0.869148 0.968590 0.059389 0.119224
H44   H     H_    0.937066 0.039852 0.064071 0.150216
O29   O     O_3   0.524688 0.184927 0.601889 -0.529211
C77   C     C_3   0.550048 0.062994 0.644813 -0.229191
H45   H     H_    0.587384 0.009966 0.635146 0.123360
H46   H     H_    0.524295 0.944673 0.651145 0.144517
H47   H     H_    0.559599 0.141112 0.685620 0.169430
O30   O     O_3   0.474920 0.789767 0.397339 -0.534040
C78   C     C_3   0.447508 0.907989 0.354540 -0.270046
H48   H     H_    0.471402 0.031264 0.347866 0.137280
H49   H     H_    0.409623 0.953576 0.364569 0.125825
H50   H     H_    0.438762 0.829329 0.313789 0.164886
O31   O     O_3   0.971963 0.664531 0.894665 -0.533116
C79   C     C_3   0.948473 0.531096 0.854326 -0.212698
H51   H     H_    0.911853 0.475706 0.864996 0.139114
H52   H     H_    0.975890 0.414914 0.850490 0.145213
H53   H     H_    0.937993 0.599452 0.812000 0.165621
O32   O     O_3   0.026720 0.321855 0.107650 -0.552067
C80   C     C_3   0.065715 0.423745 0.144477 -0.256634
H54   H     H_    0.069341 0.367880 0.188311 0.170279
H55   H     H_    0.055474 0.574303 0.145917 0.131050
H56   H     H_    0.104295 0.406617 0.132300 0.126463
O33   O     O_3   0.975742 0.335098 0.447450 -0.551763
C81   C     C_3   0.930698 0.413757 0.461899 -0.213928
H57   H     H_    0.938280 0.457406 0.507377 0.161277
H58   H     H_    0.896829 0.317222 0.452691 0.124357
H59   H     H_    0.919994 0.540584 0.435680 0.170325
O34   O     O_3   0.024858 0.664688 0.551829 -0.551176
C82   C     C_3   0.069940 0.586244 0.537394 -0.225027
H60   H     H_    0.103783 0.682898 0.546625 0.119869
H61   H     H_    0.062386 0.542634 0.491913 0.162264
H62   H     H_    0.080675 0.459414 0.563603 0.168292
O35   O     O_3   0.524343 0.835832 0.052178 -0.555488
C83   C     C_3   0.569412 0.913112 0.037631 -0.223221
H63   H     H_    0.561854 0.955698 0.992091 0.165419
H64   H     H_    0.603256 0.816083 0.046991 0.127252
H65   H     H_    0.580140 0.040416 0.063668 0.167257
O36   O     O_3   0.474994 0.163931 0.948635 -0.550960
C84   C     C_3   0.429889 0.086872 0.963171 -0.223797
H66   H     H_    0.396071 0.184019 0.953788 0.119040
H67   H     H_    0.437419 0.044335 0.008715 0.160577
H68   H     H_    0.419129 0.959561 0.937147 0.168166

loop_
_geom_bond_atom_site_label_1
_geom_bond_atom_site_label_2
_ccdc_geom_bond_type
O17   V3    S    
C47   C51   S    
O1    C5    A    
C8    C29   S    
C46   H18   S    
C51   H15   S    
O19   V1    S    
O13   V1    S    
C80   H54   S    
C37   C41   A    
O31   C79   S    
C60   C64   S    
C40   H12   S    
O15   V3    S    
O24   C72   S    
C73   H35   S    
C39   C43   A    
C69   H21   S    
O4    V2    S    
O23   C71   S    
C45   C57   S    
O33   C81   S    
C83   H63   S    
C58   O33   S    
O7    C3    A    
O5    C1    A    
C22   C26   A    
C47   C59   S    
C3    C54   S    
C54   C66   T    
C20   C43   S    
C71   H28   S    
C79   H51   S    
C14   H2    S    
C27   H7    S    
C76   H43   S    
C62   C66   S    
C52   C64   S    
C74   H38   S    
C33   C37   A    
C35   C39   A    
C38   C42   A    
O27   C75   S    
O1    V3    S    
C48   C63   S    
C53   C65   T    
C47   C64   S    
O2    V4    S    
C48   H20   S    
C46   C61   S    
O3    V1    S    
O22   C70   S    
C5    C32   S    
C33   O29   S    
C57   O34   S    
C6    C31   S    
C81   H57   S    
C25   C29   A    
C11   C31   A    
C1    O15   A    
C7    C30   S    
C52   H16   S    
C2    O16   A    
C27   C31   A    
C38   H10   S    
C78   H49   S    
C37   H9    S    
C17   C42   S    
O14   V2    S    
C16   H4    S    
C77   H46   S    
C36   C40   A    
C72   H32   S    
C36   C43   A    
O11   C7    A    
C47   H19   S    
O12   C8    A    
C82   H61   S    
C80   H55   S    
C50   C62   S    
C12   O24   S    
C19   C44   S    
O10   V2    S    
C75   H41   S    
C49   C61   S    
C2    C55   S    
O16   V4    S    
O34   C82   S    
O5    V1    S    
C70   H25   S    
C57   C61   S    
O7    V3    S    
C59   O36   S    
O8    V4    S    
C12   C16   A    
O28   C76   S    
C77   H47   S    
C75   H40   S    
C50   H14   S    
C76   H44   S    
C49   H13   S    
O18   V4    S    
C19   C23   A    
C26   C30   A    
O3    C7    A    
C46   C50   S    
C10   O22   S    
C9    C13   A    
C64   C68   S    
O36   C84   S    
C84   H68   S    
C11   C15   A    
O35   C83   S    
O2    C6    A    
C45   H17   S    
C69   H22   S    
C78   H48   S    
C17   C21   A    
O8    C4    A    
C55   C67   T    
C28   C32   A    
C46   C58   S    
C78   H50   S    
O9    C5    A    
C70   H24   S    
C81   H59   S    
C77   H45   S    
C4    C53   S    
C71   H29   S    
C36   O32   S    
C9    C29   A    
O32   C80   S    
O6    V2    S    
C56   C68   T    
C1    C56   S    
O25   C73   S    
C48   C60   S    
C80   H56   S    
C13   C17   A    
C10   C30   A    
C34   O30   S    
C52   C59   S    
C15   C19   A    
O21   C69   S    
C26   H6    S    
C70   H26   S    
O9    V1    S    
C16   C20   A    
C34   C41   A    
C21   O25   S    
C45   C62   S    
C3    O13   A    
C25   H5    S    
C33   C42   A    
C10   C14   A    
C63   C67   S    
C79   H53   S    
C35   C44   A    
C48   C52   S    
C75   H39   S    
C51   C63   S    
O6    C2    A    
C18   C41   S    
C73   H34   S    
C74   H36   S    
C22   O26   S    
O11   V3    S    
C73   H33   S    
C23   O27   S    
C82   H60   S    
O12   V4    S    
C18   C22   A    
C9    O21   S    
C83   H65   S    
C82   H62   S    
C11   O23   S    
C72   H30   S    
O20   V2    S    
C40   C44   A    
C76   H42   S    
C39   H11   S    
C74   H37   S    
O10   C6    A    
O30   C78   S    
C61   C65   S    
O4    C8    A    
C21   C25   A    
C79   H52   S    
C83   H64   S    
C58   C62   S    
C23   C27   A    
C13   H1    S    
C84   H66   S    
C81   H58   S    
C14   C18   A    
C69   H23   S    
O26   C74   S    
C51   C60   S    
C35   O31   S    
C20   C24   A    
C60   O35   S    
C28   H8    S    
C34   C38   A    
C15   H3    S    
C24   O28   S    
C4    O14   A    
C59   C63   S    
C84   H67   S    
O29   C77   S    
C12   C32   A    
C50   C57   S    
C45   C49   S    
C49   C58   S    
C24   C28   A    
C71   H27   S    
C72   H31   S    
