data_mof_unit_53401.cif
_audit_creation_date              2012-12-10T16:51:18-0500
_audit_creation_method            fapswitch 2.2
_symmetry_space_group_name_H-M    P1
_symmetry_Int_Tables_number       1
_space_group_crystal_system       triclinic
_cell_length_a                    27.770889
_cell_length_b                    8.650583
_cell_length_c                    7.4332
_cell_angle_alpha                 103.014058
_cell_angle_beta                  94.310965
_cell_angle_gamma                 92.215687
_cell_volume                      1732.07939621

loop_
_atom_site_label
_atom_site_type_symbol
_atom_type_description
_atom_site_fract_x
_atom_site_fract_y
_atom_site_fract_z
_atom_type_partial_charge
C1    C     C_R   0.498540 0.199613 0.453137 0.890012
C2    C     C_R   0.501459 0.800387 0.546863 0.890046
C3    C     C_R   0.102652 0.504253 0.515082 -0.096444
C4    C     C_R   0.897355 0.485315 0.489455 -0.098248
C5    C     C_R   0.125955 0.365156 0.439157 0.004825
C6    C     C_R   0.874359 0.621395 0.577506 -0.018116
C7    C     C_R   0.098782 0.223645 0.362425 -0.028615
C8    C     C_R   0.901884 0.757727 0.671600 -0.073301
C9    C     C_R   0.130829 0.647003 0.597290 -0.145662
C10   C     C_R   0.868896 0.345796 0.396904 -0.150252
C11   C     C_R   0.354926 0.504371 0.507980 -0.095083
C12   C     C_R   0.645021 0.492634 0.492408 -0.115668
C13   C     C_R   0.972172 0.352812 0.412124 -0.026600
C14   C     C_R   0.027730 0.638113 0.584557 -0.020827
C15   C     C_R   0.976476 0.631630 0.586218 0.082046
C16   C     C_R   0.023677 0.355420 0.424589 0.080976
C17   C     C_R   0.948810 0.489746 0.495775 0.086092
C18   C     C_R   0.051205 0.499392 0.508137 0.089795
C19   C     C_R   0.943255 0.216612 0.318545 -0.263207
C20   C     C_R   0.056169 0.780869 0.653571 -0.272715
C21   C     C_R   0.892878 0.208465 0.314019 0.442271
C22   C     C_R   0.106631 0.788348 0.662032 0.450263
C23   C     C_R   0.407578 0.500814 0.502457 0.822054
C24   C     C_R   0.592411 0.498699 0.497533 0.829385
C25   C     C_R   0.048864 0.217949 0.357425 -0.176116
C26   C     C_R   0.951790 0.762457 0.678052 -0.177072
C27   C     C_2   0.497835 0.031608 0.426675 -0.360555
C28   C     C_2   0.502163 0.968392 0.573325 -0.357345
C29   C     C_R   0.176298 0.369985 0.440813 0.632610
C30   C     C_R   0.824002 0.617874 0.573648 0.636506
C31   C     C_R   0.181938 0.640792 0.606983 0.709652
C32   C     C_R   0.817785 0.351807 0.392317 0.689805
C33   C     C_R   0.276507 0.556064 0.370814 0.403381
C34   C     C_R   0.722699 0.435341 0.630211 0.459376
C35   C     C_R   0.326706 0.551164 0.366794 -0.294867
C36   C     C_R   0.672550 0.442591 0.632860 -0.265417
C37   C     C_R   0.332550 0.460649 0.653366 -0.199122
C38   C     C_R   0.668033 0.536333 0.348395 -0.178557
C39   C     C_R   0.282496 0.460997 0.655777 -0.053204
C40   C     C_R   0.718112 0.533476 0.347288 -0.078220
C41   C     C_R   0.254358 0.509190 0.516245 0.214844
C42   C     C_R   0.745581 0.483112 0.486987 0.194181
Cu1   Cu    Cu3+1 0.505380 0.517380 0.684380 0.965755
Cu2   Cu    Cu3+1 0.494620 0.482620 0.315620 0.963819
H1    H     H_    0.353639 0.423219 0.762986 0.167152
H2    H     H_    0.647439 0.575643 0.239008 0.171674
H3    H     H_    0.462176 0.377918 0.948255 0.225315
H4    H     H_    0.537823 0.622084 0.051745 0.227092
H5    H     H_    0.265377 0.423126 0.765936 0.219031
H6    H     H_    0.735763 0.571105 0.238097 0.221333
H7    H     H_    0.116077 0.115035 0.306625 0.219758
H8    H     H_    0.884922 0.862124 0.743028 0.229821
H9    H     H_    0.654751 0.407334 0.743207 0.207291
H10   H     H_    0.343959 0.585299 0.254617 0.189322
H11   H     H_    0.959129 0.112920 0.244279 0.197886
H12   H     H_    0.039607 0.891570 0.697204 0.186962
H13   H     H_    0.031452 0.101972 0.301966 0.149849
H14   H     H_    0.969808 0.870208 0.761055 0.156500
H15   H     H_    0.493756 0.959698 0.285508 0.180624
H16   H     H_    0.506242 0.040303 0.714493 0.181661
N1    N     N_R   0.202896 0.506675 0.521505 -0.470579
N2    N     N_R   0.797108 0.484213 0.484096 -0.467452
N3    N     N_2   0.486510 0.456430 0.038510 -0.215144
N4    N     N_2   0.513490 0.543570 0.961490 -0.214077
O1    O     O_R   0.503500 0.286120 0.619780 -0.585737
O2    O     O_R   0.496500 0.713880 0.380220 -0.586917
O3    O     O_R   0.494410 0.256780 0.308360 -0.582228
O4    O     O_R   0.505590 0.743220 0.691640 -0.581675
O5    O     O_R   0.434810 0.514700 0.655690 -0.590087
O6    O     O_R   0.565190 0.485300 0.344310 -0.587575
O7    O     O_R   0.425720 0.485350 0.344280 -0.581542
O8    O     O_R   0.574280 0.514650 0.655720 -0.579506
O9    O     O_2   0.198741 0.239081 0.362276 -0.481023
O10   O     O_2   0.801834 0.747004 0.659330 -0.448271
O11   O     O_2   0.788417 0.228440 0.297625 -0.431000
O12   O     O_2   0.210979 0.765460 0.700859 -0.398305
S1    S     S_3+6 0.755888 0.366634 0.806533 0.025887
O13   O     O_2   0.786212 0.234140 0.720024 -0.233338
O14   O     O_2   0.788549 0.500183 0.923054 -0.282743
O15   O     O_3   0.717946 0.299745 0.941961 -0.554002
H17   H     H_    0.733235 0.207410 0.975469 0.419963
S2    S     S_3+6 0.242202 0.617613 0.191442 0.028536
O16   O     O_2   0.211597 0.477958 0.076620 -0.268881
O17   O     O_2   0.209551 0.745148 0.271831 -0.226613
O18   O     O_3   0.278696 0.688290 0.054272 -0.521206
H18   H     H_    0.291736 0.793366 0.128664 0.364633
S3    S     S_3+6 0.863300 0.019126 0.209809 0.052602
O19   O     O_2   0.831649 0.968336 0.344102 -0.207697
O20   O     O_2   0.832948 0.030083 0.037391 -0.200327
O21   O     O_3   0.903688 0.880089 0.151792 -0.580981
H19   H     H_    0.883961 0.779798 0.100225 0.387609
S4    S     S_3+6 0.136356 0.980704 0.745926 0.047003
O22   O     O_2   0.169878 0.013865 0.607735 -0.220533
O23   O     O_2   0.100514 0.108070 0.776096 -0.321792
O24   O     O_3   0.168214 0.986534 0.949214 -0.437881
H20   H     H_    0.186943 0.090221 0.979241 0.407125

loop_
_geom_bond_atom_site_label_1
_geom_bond_atom_site_label_2
_ccdc_geom_bond_type
S3    O19   D    
C21   S3    S    
Cu1   O8    S    
C8    C26   A    
C23   O5    A    
Cu2   O2    S    
O24   H20   S    
C34   C42   A    
C41   N1    S    
C20   H12   S    
C32   O11   S    
C31   O12   S    
C24   O6    A    
C39   C41   A    
O18   H18   S    
Cu2   O7    S    
C19   C21   A    
C2    O4    A    
C34   S1    S    
H3    N3    S    
C30   O10   S    
C9    C22   A    
H4    N4    S    
C29   O9    S    
C3    C18   A    
C11   C37   A    
C31   N1    A    
C36   H9    S    
C33   C35   A    
Cu1   O4    S    
C1    O1    A    
Cu2   O6    S    
C12   C36   A    
C33   S2    S    
C42   N2    S    
C40   C42   A    
Cu2   N3    S    
C35   H10   S    
C25   H13   S    
Cu1   N4    S    
C5    C29   A    
C28   H16   S    
C10   C21   A    
C29   N1    A    
C13   C19   A    
C14   C20   A    
C4    C6    A    
C5    C7    A    
C15   C26   A    
C6    C8    A    
C3    C5    A    
S1    O13   D    
S4    O24   S    
Cu1   Cu2   S    
C3    C9    A    
C23   O7    A    
Cu1   O1    S    
S4    O23   D    
S1    O14   D    
C26   H14   S    
C4    C17   A    
C39   H5    S    
C20   C22   A    
S2    O17   D    
C30   N2    A    
C13   C16   A    
C4    C10   A    
C24   O8    A    
S1    O15   S    
C19   H11   S    
C16   C25   A    
C15   C17   A    
C8    H8    S    
C6    C30   A    
C14   C18   A    
O15   H17   S    
C2    O2    A    
S2    O18   S    
C12   C24   S    
C7    C25   A    
C13   C17   A    
C33   C41   A    
C11   C35   A    
C7    H7    S    
C37   C39   A    
C27   H15   S    
C38   C40   A    
O21   H19   S    
C40   H6    S    
C11   C23   S    
S4    O22   D    
C1    O3    A    
C34   C36   A    
C12   C38   A    
C38   H2    S    
C9    C31   A    
C32   N2    A    
N3    N4    D    
C10   C32   A    
C16   C18   A    
S2    O16   D    
S3    O21   S    
C27   C28   D    
C1    C27   S    
S3    O20   D    
C22   S4    S    
C14   C15   A    
Cu2   O3    S    
C2    C28   S    
Cu1   O5    S    
C37   H1    S    
