data_mof_unit_59086.cif
_audit_creation_date              2013-03-05T16:18:09-0500
_audit_creation_method            fapswitch 2.2
_symmetry_space_group_name_H-M    P1
_symmetry_Int_Tables_number       1
_space_group_crystal_system       triclinic
_cell_length_a                    10.744685
_cell_length_b                    10.00304
_cell_length_c                    15.71582
_cell_angle_alpha                 90.180976
_cell_angle_beta                  86.941446
_cell_angle_gamma                 91.483581
_cell_volume                      1686.15449041

loop_
_atom_site_label
_atom_site_type_symbol
_atom_site_description
_atom_site_fract_x
_atom_site_fract_y
_atom_site_fract_z
_atom_type_partial_charge
O1    O     O_R   0.314910 0.616040 0.499980 -0.598619
O2    O     O_R   0.314910 0.383960 0.499980 -0.590709
C1    C     C_R   0.258649 0.498226 0.503484 0.865080
O3    O     O_R   0.500120 0.616090 0.377110 -0.625969
O4    O     O_R   0.500120 0.383910 0.377110 -0.588880
C2    C     C_R   0.500203 0.499836 0.339090 0.972310
Zn1   Zn    Zn3+2 0.500150 0.654960 0.499960 0.944040
Zn2   Zn    Zn3+2 0.500150 0.345040 0.499960 0.954876
O5    O     O_R   0.685320 0.616040 0.499960 -0.631659
O6    O     O_R   0.685320 0.383960 0.499960 -0.631032
O7    O     O_R   0.500110 0.615990 0.622830 -0.639790
O8    O     O_R   0.500110 0.384010 0.622830 -0.635600
C3    C     C_R   0.741945 0.501153 0.500574 0.908429
C4    C     C_R   0.499718 0.500162 0.660868 0.865752
C5    C     C_3   0.423304 0.630620 0.053149 0.339269
C6    C     C_3   0.429729 0.361244 0.052021 0.335157
C7    C     C_3   0.427414 0.369645 0.951537 -0.044406
C8    C     C_3   0.421604 0.622894 0.952555 -0.044726
H1    H     H_    0.324408 0.596958 0.936380 0.142563
H2    H     H_    0.329214 0.385327 0.935728 0.142265
C9    C     C_1   0.500235 0.500579 0.749487 -0.213953
C10   C     C_3   0.492039 0.499408 0.083590 0.135662
C11   C     C_3   0.501016 0.500522 0.916603 0.164248
C12   C     C_3   0.640130 0.508063 0.947072 0.418206
C13   C     C_3   0.631522 0.507178 0.046724 -0.450228
C14   C     C_1   0.500672 0.500699 0.824736 -0.032307
C15   C     C_1   0.496042 0.499330 0.175332 -0.036195
C16   C     C_1   0.498585 0.499443 0.250483 -0.127027
H3    H     H_    0.682173 0.594665 0.072878 0.198377
H4    H     H_    0.686191 0.425231 0.072094 0.199388
C17   C     C_3   0.067710 0.573780 0.582937 -0.385280
C18   C     C_3   0.067523 0.351954 0.510518 -0.333413
H5    H     H_    0.118236 0.668578 0.594688 0.213551
H6    H     H_    0.092447 0.300847 0.449758 0.277826
H7    H     H_    0.079937 0.513826 0.641320 0.166215
H8    H     H_    0.108242 0.297016 0.563283 0.205430
C19   C     C_3   0.928640 0.599802 0.572657 0.049065
C20   C     C_3   0.924805 0.354429 0.521556 0.027640
H9    H     H_    0.922173 0.703389 0.550391 0.241421
H10   H     H_    0.888338 0.284817 0.472981 0.206600
H11   H     H_    0.120854 0.655954 0.411141 0.282103
H12   H     H_    0.136276 0.501054 0.364708 0.193802
C21   C     C_3   0.085003 0.552283 0.418175 -0.414182
C22   C     C_3   0.122216 0.495229 0.504322 -0.045138
C23   C     C_3   0.879441 0.501447 0.502330 -0.091623
C24   C     C_3   0.941035 0.542915 0.410222 0.406110
C25   C     C_3   0.369796 0.079473 0.521384 0.419184
C26   C     C_3   0.370789 0.914979 0.524202 0.423855
H13   H     H_    0.486022 0.106795 0.362199 0.203080
H14   H     H_    0.485559 0.885629 0.362935 0.208271
C27   C     C_3   0.546310 0.080229 0.413383 0.029339
C28   C     C_3   0.545064 0.920290 0.413298 -0.034018
C29   C     C_3   0.584899 0.081940 0.561011 -0.327970
C30   C     C_3   0.588071 0.922918 0.559144 -0.316618
N1    N     N_3   0.499750 0.138610 0.498180 -0.096242
N2    N     N_3   0.499750 0.861390 0.498180 -0.108159
H15   H     H_    0.680723 0.122846 0.549203 0.190680
H16   H     H_    0.684775 0.891499 0.543770 0.192622
H17   H     H_    0.562348 0.117631 0.626476 0.168836
H18   H     H_    0.573426 0.881124 0.623949 0.169338
N3    N     N_R   0.902435 0.674543 0.378963 0.178036
O9    O     O_R   0.868704 0.685266 0.300911 -0.353371
O10   O     O_R   0.936786 0.784421 0.416544 -0.399080
N4    N     N_R   0.906838 0.439640 0.346603 0.190639
O11   O     O_R   0.986587 0.354855 0.314540 -0.397445
O12   O     O_R   0.794781 0.435505 0.319024 -0.424583
N5    N     N_R   0.277209 0.121348 0.459749 0.225567
O13   O     O_R   0.159969 0.088924 0.474392 -0.355364
O14   O     O_R   0.305482 0.195629 0.393452 -0.386721
N6    N     N_R   0.273537 0.860406 0.468041 0.252761
O15   O     O_R   0.160251 0.841576 0.499964 -0.368466
O16   O     O_R   0.285835 0.864873 0.385419 -0.400451
C31   C     C_3   0.319799 0.138259 0.609590 -0.869669
H19   H     H_    0.371578 0.109018 0.665032 0.199905
H20   H     H_    0.320131 0.247065 0.611987 0.270397
H21   H     H_    0.220939 0.107800 0.623895 0.234608
C32   C     C_3   0.330268 0.860710 0.616517 -0.850743
H22   H     H_    0.389008 0.895140 0.668109 0.195001
H23   H     H_    0.234368 0.889521 0.637058 0.237261
H24   H     H_    0.326941 0.751403 0.619455 0.269508
C33   C     C_3   0.672410 0.144380 0.379540 -0.726638
H25   H     H_    0.668756 0.252491 0.377051 0.311585
H26   H     H_    0.751944 0.119888 0.417898 0.231445
H27   H     H_    0.694322 0.113332 0.312654 0.226324
C34   C     C_3   0.669490 0.862952 0.378426 -0.671415
H28   H     H_    0.670135 0.754451 0.382474 0.305468
H29   H     H_    0.685655 0.886815 0.309652 0.223889
H30   H     H_    0.749255 0.902947 0.412302 0.272705
C35   C     C_3   0.286805 0.642427 0.092251 -0.840721
H31   H     H_    0.216136 0.587441 0.056776 0.210876
H32   H     H_    0.278741 0.611631 0.160116 0.259209
H33   H     H_    0.254778 0.747066 0.089928 0.251993
C36   C     C_3   0.294262 0.334063 0.091112 -0.831887
H34   H     H_    0.284979 0.363119 0.159294 0.265692
H35   H     H_    0.221009 0.381542 0.056300 0.209998
H36   H     H_    0.267310 0.226217 0.087719 0.250034
C37   C     C_3   0.502797 0.238079 0.083147 -0.804276
H37   H     H_    0.458012 0.141882 0.064335 0.232165
H38   H     H_    0.599858 0.233333 0.058310 0.215652
H39   H     H_    0.503886 0.236700 0.153779 0.247454
C38   C     C_3   0.490151 0.761239 0.085545 -0.806315
H40   H     H_    0.441004 0.852401 0.067415 0.233350
H41   H     H_    0.490801 0.762242 0.156204 0.245667
H42   H     H_    0.586854 0.776768 0.061052 0.215256
C39   C     C_3   0.448762 0.235801 0.902953 -0.897589
H43   H     H_    0.374511 0.161978 0.924134 0.238115
H44   H     H_    0.440914 0.248065 0.833333 0.245211
H45   H     H_    0.538075 0.188941 0.913420 0.253870
C40   C     C_3   0.437161 0.759070 0.905197 -0.897989
H46   H     H_    0.430405 0.746531 0.835429 0.245714
H47   H     H_    0.359611 0.824600 0.926738 0.238314
H48   H     H_    0.524046 0.815278 0.916424 0.254108
C41   C     C_3   0.714369 0.635108 0.913496 -0.860026
H49   H     H_    0.704273 0.650036 0.844265 0.247854
H50   H     H_    0.689284 0.726827 0.947497 0.220526
H51   H     H_    0.815624 0.627912 0.923368 0.231681
C42   C     C_3   0.720271 0.389851 0.912381 -0.861316
H52   H     H_    0.820706 0.407505 0.923331 0.230138
H53   H     H_    0.698702 0.294992 0.944848 0.221461
H54   H     H_    0.712079 0.375489 0.842803 0.243344
C43   C     C_3   0.854999 0.603558 0.659930 -0.956925
H55   H     H_    0.891998 0.687802 0.698260 0.242396
H56   H     H_    0.754996 0.622213 0.652550 0.258324
H57   H     H_    0.862945 0.512517 0.698379 0.259244
C44   C     C_3   0.880321 0.292061 0.608412 -0.885669
H58   H     H_    0.783297 0.317525 0.628203 0.259950
H59   H     H_    0.884491 0.181397 0.603738 0.239367
H60   H     H_    0.941966 0.322016 0.659894 0.237752

loop_
_geom_bond_atom_site_label_1
_geom_bond_atom_site_label_2
_geom_bond_distance
_ccdc_geom_bond_type
C5    C8    1.583606 S    
C20   H10   1.111580 S    
C9    C14   1.182853 T    
C36   H34   1.109392 S    
C31   H20   1.088848 S    
C31   H19   1.102742 S    
C8    C40   1.555226 S    
C33   H27   1.110024 S    
C33   H25   1.084073 S    
C29   H17   1.104644 S    
C30   H18   1.104072 S    
C32   H22   1.102697 S    
Zn1   O7    1.971137 S    
C39   H44   1.109281 S    
C6    C36   1.566872 S    
C7    C11   1.595415 S    
C18   H8    1.111354 S    
C4    C9    1.393019 S    
C28   C34   1.541486 S    
C42   H53   1.092475 S    
C34   H28   1.087618 S    
O4    C2    1.306139 A    
O7    C4    1.305243 A    
C6    C37   1.571118 S    
C34   H30   1.098915 S    
C7    H2    1.111949 S    
C26   N2    1.533370 S    
C8    H1    1.111960 S    
C11   C14   1.443980 S    
N3    O10   1.300483 A    
O5    C3    1.314484 A    
C20   C23   1.596010 S    
C37   H38   1.096013 S    
C5    C10   1.609000 S    
C2    C16   1.393559 S    
C6    C7    1.583240 S    
H13   C27   1.096885 S    
C10   C13   1.577792 S    
C44   H60   1.108380 S    
H14   C28   1.093732 S    
C11   C12   1.593593 S    
C17   H5    1.100444 S    
N6    O15   1.300915 A    
C18   C20   1.534845 S    
C35   H32   1.109406 S    
C27   C33   1.552637 S    
C41   H51   1.111321 S    
C34   H29   1.111216 S    
C12   C41   1.560949 S    
C36   H35   1.100602 S    
H11   C21   1.100688 S    
Zn1   N2    2.065325 S    
O3    Zn1   1.968262 S    
Zn2   N1    2.064926 S    
C25   N5    1.493435 S    
C33   H26   1.104740 S    
C37   H37   1.110998 S    
C29   N1    1.503398 S    
C13   H3    1.108127 S    
C39   H45   1.099232 S    
C30   N2    1.503454 S    
C1    C22   1.464810 S    
C17   C22   1.557996 S    
C24   N3    1.483615 S    
C8    C11   1.594979 S    
C38   H40   1.110970 S    
C12   C13   1.563941 S    
C25   C31   1.577257 S    
O3    C2    1.305738 A    
C42   H54   1.110267 S    
C29   H15   1.104631 S    
C23   C24   1.610223 S    
N5    O13   1.301313 A    
C24   N4    1.488253 S    
O1    C1    1.310459 A    
N4    O12   1.300869 A    
C26   C32   1.585695 S    
C21   C22   1.546939 S    
C7    C39   1.555275 S    
C5    C35   1.566828 S    
C25   C26   1.646494 S    
Zn2   O8    1.968728 S    
C12   C42   1.560619 S    
C32   H23   1.108296 S    
C5    C38   1.571148 S    
C35   H33   1.111568 S    
C43   H55   1.111781 S    
C43   H57   1.102162 S    
C19   C43   1.547282 S    
Zn2   O6    2.017411 S    
O8    C4    1.304967 A    
C36   H36   1.111573 S    
C10   C15   1.444729 S    
C44   H58   1.107715 S    
C31   H21   1.108999 S    
C17   H7    1.113199 S    
C40   H48   1.099341 S    
H12   C21   1.111153 S    
C19   C23   1.580356 S    
C37   H39   1.110850 S    
C25   N1    1.528680 S    
C41   H49   1.110096 S    
C30   H16   1.107442 S    
C32   H24   1.094094 S    
C13   H4    1.108129 S    
Zn1   O5    2.037195 S    
C6    C10   1.608624 S    
O1    Zn1   2.018130 S    
O2    Zn2   2.037914 S    
C26   N6    1.494913 S    
O6    C3    1.306961 A    
O4    Zn2   1.970673 S    
C29   C30   1.592100 S    
C38   H42   1.096008 S    
C39   H43   1.111455 S    
N4    O11   1.302407 A    
C40   H47   1.111471 S    
O2    C1    1.306428 A    
C27   C28   1.599587 S    
C19   H9    1.099795 S    
C40   H46   1.109226 S    
C3    C23   1.479008 S    
C27   N1    1.518668 S    
N3    O9    1.303010 A    
C21   C24   1.558944 S    
C43   H56   1.107539 S    
C17   C19   1.540410 S    
C18   C22   1.536232 S    
C20   C44   1.549595 S    
C38   H41   1.110858 S    
C15   C16   1.182834 T    
C44   H59   1.111084 S    
N6    O16   1.298933 A    
N5    O14   1.299771 A    
C35   H31   1.100703 S    
C42   H52   1.111344 S    
C28   N2    1.511464 S    
C18   H6    1.105266 S    
C41   H50   1.092830 S    
