data_mof_unit_22078.cif
_audit_creation_date              2012-12-10T18:39:53-0500
_audit_creation_method            fapswitch 2.2
_symmetry_space_group_name_H-M    P1
_symmetry_Int_Tables_number       1
_space_group_crystal_system       triclinic
_cell_length_a                    15.226834
_cell_length_b                    13.7839
_cell_length_c                    23.569675
_cell_angle_alpha                 89.998925
_cell_angle_beta                  89.668226
_cell_angle_gamma                 89.999917
_cell_volume                      4946.84200492

loop_
_atom_site_label
_atom_site_type_symbol
_atom_type_description
_atom_site_fract_x
_atom_site_fract_y
_atom_site_fract_z
_atom_type_partial_charge
C1    C     C_R   0.329619 0.499970 0.499190 0.874274
C2    C     C_R   0.670381 0.499970 0.500804 0.874313
C3    C     C_R   0.542301 0.568787 0.238061 -0.210515
C4    C     C_R   0.457680 0.568791 0.761936 -0.210517
C5    C     C_R   0.542080 0.572213 0.297456 0.342312
C6    C     C_R   0.457912 0.572218 0.702541 0.342311
C7    C     C_R   0.497371 0.499545 0.328429 -0.219673
C8    C     C_R   0.502614 0.499541 0.671572 -0.219690
C9    C     C_R   0.450821 0.425905 0.299675 0.366133
C10   C     C_R   0.549143 0.425888 0.700331 0.366161
C11   C     C_R   0.449945 0.426072 0.240002 -0.205008
C12   C     C_R   0.550009 0.426056 0.760005 -0.205010
C13   C     C_R   0.496358 0.496307 0.209195 0.224175
C14   C     C_R   0.503607 0.496303 0.790807 0.224177
C15   C     C_R   0.094820 0.584332 0.483000 -0.257601
C16   C     C_R   0.905982 0.418258 0.484373 -0.280807
C17   C     C_R   0.905181 0.584315 0.517011 -0.257574
C18   C     C_R   0.094019 0.418238 0.515578 -0.280725
C19   C     C_R   0.186501 0.585626 0.484238 0.392814
C20   C     C_R   0.814400 0.414299 0.488340 0.397877
C21   C     C_R   0.813501 0.585611 0.515771 0.392777
C22   C     C_R   0.185597 0.414285 0.511609 0.397805
C23   C     C_R   0.232815 0.499954 0.498395 -0.214488
C24   C     C_R   0.767185 0.499954 0.501590 -0.214451
C25   C     C_R   0.048272 0.501842 0.499910 0.043917
C26   C     C_R   0.951728 0.501843 0.500074 0.043948
C27   C     C_R   0.499361 0.499982 0.390900 0.894311
C28   C     C_R   0.500636 0.499981 0.609100 0.894298
C29   C     C_R   0.472703 0.106741 0.547981 -0.320188
C30   C     C_R   0.452992 0.892906 0.459127 -0.303778
C31   C     C_R   0.527280 0.106742 0.452017 -0.320219
C32   C     C_R   0.546997 0.892907 0.540874 -0.303782
C33   C     C_R   0.471539 0.208809 0.546718 0.072897
C34   C     C_R   0.452674 0.790845 0.460446 0.069627
C35   C     C_R   0.528453 0.208810 0.453280 0.072734
C36   C     C_R   0.547321 0.790846 0.539554 0.069611
C37   C     C_R   0.499991 0.054181 0.499999 0.147348
C38   C     C_R   0.499993 0.945454 0.500000 0.141692
C39   C     C_R   0.581051 0.498316 0.880625 0.561374
C40   C     C_R   0.418912 0.498328 0.119377 0.561372
C41   C     C_R   0.424432 0.489407 0.880241 0.569332
C42   C     C_R   0.575530 0.489391 0.119761 0.569331
C43   C     C_R   0.421781 0.491733 0.939647 -0.059319
C44   C     C_R   0.578182 0.491717 0.060354 -0.059316
C45   C     C_R   0.501009 0.494173 0.970012 -0.080062
C46   C     C_R   0.498953 0.494172 0.029990 -0.080060
C47   C     C_R   0.582135 0.496010 0.940492 -0.105423
C48   C     C_R   0.417828 0.496023 0.059510 -0.105426
C49   C     C_R   0.341497 0.491463 0.969040 -0.260833
C50   C     C_R   0.658465 0.491433 0.030962 -0.260840
C51   C     C_R   0.338596 0.496626 0.028342 0.446559
C52   C     C_R   0.661367 0.496598 0.971660 0.446562
Cu1   Cu    Cu3+1 0.500000 0.596430 0.500000 0.980400
Cu2   Cu    Cu3+1 0.500000 0.403570 0.500000 1.004225
H1    H     H_    0.280083 0.488041 0.946151 0.195496
H2    H     H_    0.719879 0.487998 0.053851 0.195495
H3    H     H_    0.447194 0.247706 0.583342 0.138827
H4    H     H_    0.414841 0.751231 0.429444 0.148957
H5    H     H_    0.552800 0.247708 0.416656 0.138866
H6    H     H_    0.585156 0.751232 0.570556 0.148953
H7    H     H_    0.579186 0.622168 0.214100 0.165425
H8    H     H_    0.420800 0.622179 0.785894 0.165427
H9    H     H_    0.412808 0.371897 0.217212 0.173099
H10   H     H_    0.587132 0.371873 0.782800 0.173089
H11   H     H_    0.060276 0.648268 0.468402 0.154900
H12   H     H_    0.941456 0.355234 0.469266 0.140443
H13   H     H_    0.939724 0.648238 0.531626 0.154909
H14   H     H_    0.058550 0.355189 0.530657 0.140506
H15   H     H_    0.450378 0.069091 0.585726 0.134996
H16   H     H_    0.415687 0.930581 0.426948 0.134299
H17   H     H_    0.549602 0.069093 0.414272 0.135003
H18   H     H_    0.584299 0.930583 0.573052 0.134302
N1    N     N_R   0.503082 0.494225 0.851903 -0.447625
N2    N     N_R   0.496881 0.494224 0.148099 -0.447623
N3    N     N_R   0.500000 0.258690 0.500000 -0.168782
N4    N     N_R   0.500000 0.741310 0.500000 -0.182121
O1    O     O_R   0.371460 0.581430 0.500000 -0.568739
O2    O     O_R   0.628540 0.418570 0.500000 -0.535804
O3    O     O_R   0.628540 0.581430 0.500000 -0.568768
O4    O     O_R   0.371460 0.418570 0.500000 -0.535830
O5    O     O_R   0.499970 0.581450 0.417880 -0.575076
O6    O     O_R   0.500030 0.418550 0.582120 -0.580140
O7    O     O_R   0.500030 0.581450 0.582120 -0.575052
O8    O     O_R   0.499970 0.418550 0.417880 -0.580153
O9    O     O_2   0.656961 0.505946 0.851179 -0.501738
O10   O     O_2   0.343003 0.505971 0.148823 -0.501747
O11   O     O_2   0.348826 0.481881 0.850935 -0.541715
O12   O     O_2   0.651134 0.481849 0.149067 -0.541714
O13   O     O_3   0.257891 0.494238 0.055578 -0.532904
C53   C     C_3   0.217977 0.586378 0.050888 0.094185
H19   H     H_    0.200953 0.602608 0.006006 0.123696
H20   H     H_    0.261851 0.644512 0.067463 0.143846
C54   C     C_3   0.133613 0.587227 0.085737 -0.714960
H21   H     H_    0.148422 0.572421 0.131008 0.270094
H22   H     H_    0.101573 0.659358 0.082388 0.184830
H23   H     H_    0.087781 0.530932 0.069777 0.245099
O14   O     O_3   0.742071 0.494197 0.944424 -0.532903
C55   C     C_3   0.782003 0.586327 0.949117 0.094185
H24   H     H_    0.799037 0.602541 0.993998 0.123700
H25   H     H_    0.738135 0.644475 0.932550 0.143831
C56   C     C_3   0.866360 0.587166 0.914260 -0.714935
H26   H     H_    0.851539 0.572381 0.868990 0.270091
H27   H     H_    0.898415 0.659288 0.917614 0.184827
H28   H     H_    0.912184 0.530853 0.930211 0.245104
O15   O     O_3   0.593681 0.639547 0.325438 -0.558480
C57   C     C_3   0.558002 0.733282 0.318001 0.103560
H29   H     H_    0.488606 0.736037 0.333177 0.135008
H30   H     H_    0.560864 0.756125 0.272763 0.129084
C58   C     C_3   0.611391 0.805609 0.352237 -0.784488
H31   H     H_    0.680156 0.807556 0.336319 0.243509
H32   H     H_    0.582280 0.879174 0.348382 0.191764
H33   H     H_    0.611585 0.784279 0.397590 0.252941
O16   O     O_3   0.406325 0.639563 0.674555 -0.558477
C59   C     C_3   0.442012 0.733292 0.681997 0.103568
H34   H     H_    0.511407 0.736043 0.666819 0.135013
H35   H     H_    0.439156 0.756127 0.727235 0.129077
C60   C     C_3   0.388626 0.805634 0.647767 -0.784493
H36   H     H_    0.319862 0.807585 0.663689 0.243510
H37   H     H_    0.417743 0.879196 0.651625 0.191764
H38   H     H_    0.388424 0.784315 0.602413 0.252942
O17   O     O_3   0.397853 0.362966 0.330851 -0.563056
C61   C     C_3   0.409316 0.264765 0.314650 0.078544
H39   H     H_    0.426051 0.222586 0.353154 0.155451
H40   H     H_    0.463587 0.251600 0.283600 0.118247
C62   C     C_3   0.323338 0.224578 0.291803 -0.793769
H41   H     H_    0.302967 0.265154 0.253414 0.254057
H42   H     H_    0.331711 0.146879 0.280568 0.199131
H43   H     H_    0.270980 0.230913 0.324619 0.251227
O18   O     O_3   0.602099 0.362930 0.669161 -0.563028
C63   C     C_3   0.590622 0.264734 0.685372 0.078540
H44   H     H_    0.573901 0.222546 0.646870 0.155456
H45   H     H_    0.536336 0.251585 0.716413 0.118237
C64   C     C_3   0.676587 0.224544 0.708240 -0.793709
H46   H     H_    0.696949 0.265129 0.746626 0.254045
H47   H     H_    0.668202 0.146850 0.719483 0.199121
H48   H     H_    0.728960 0.230860 0.675431 0.251267
O19   O     O_3   0.230443 0.667201 0.464820 -0.567077
C65   C     C_3   0.221194 0.744453 0.504070 0.097143
H49   H     H_    0.282428 0.750035 0.529147 0.174434
H50   H     H_    0.165409 0.736425 0.534681 0.121649
C66   C     C_3   0.208230 0.838903 0.471792 -0.823743
H51   H     H_    0.144902 0.836839 0.448687 0.243243
H52   H     H_    0.207343 0.900878 0.501903 0.204676
H53   H     H_    0.262426 0.849691 0.440757 0.248540
O20   O     O_3   0.770361 0.328410 0.476557 -0.555346
C67   C     C_3   0.799919 0.253536 0.512989 0.081830
H54   H     H_    0.812546 0.280155 0.556948 0.140402
H55   H     H_    0.860866 0.220367 0.495505 0.131685
C68   C     C_3   0.730418 0.174678 0.517030 -0.756140
H56   H     H_    0.715110 0.146513 0.474080 0.247232
H57   H     H_    0.754811 0.113914 0.543569 0.187065
H58   H     H_    0.669987 0.204404 0.536991 0.262829
O21   O     O_3   0.769562 0.667178 0.535200 -0.567071
C69   C     C_3   0.778796 0.744434 0.495950 0.097128
H59   H     H_    0.717570 0.749990 0.470863 0.174434
H60   H     H_    0.834598 0.736433 0.465350 0.121648
C70   C     C_3   0.791717 0.838888 0.528229 -0.823740
H61   H     H_    0.855042 0.836854 0.551337 0.243249
H62   H     H_    0.792581 0.900863 0.498118 0.204662
H63   H     H_    0.737512 0.849646 0.559261 0.248541
O22   O     O_3   0.229623 0.328371 0.523343 -0.555342
C71   C     C_3   0.200166 0.253627 0.486789 0.081896
H64   H     H_    0.187702 0.280394 0.442839 0.140454
H65   H     H_    0.139145 0.220428 0.504146 0.131628
C72   C     C_3   0.269654 0.174754 0.482762 -0.756119
H66   H     H_    0.284834 0.146472 0.525706 0.247259
H67   H     H_    0.245320 0.114073 0.456139 0.187046
H68   H     H_    0.330147 0.204513 0.462899 0.262833

loop_
_geom_bond_atom_site_label_1
_geom_bond_atom_site_label_2
_ccdc_geom_bond_type
C54   H21   S    
C4    H8    S    
C1    O1    A    
O15   C57   S    
C63   H45   S    
Cu2   O8    S    
O14   C55   S    
C68   H56   S    
C32   H18   S    
C5    O15   S    
C45   C46   A    
C15   C19   A    
C35   N3    A    
C72   H66   S    
C17   C26   A    
C32   C36   A    
Cu1   O5    S    
C27   O8    A    
Cu1   O3    S    
C67   H54   S    
C11   H9    S    
C58   H32   S    
C12   H10   S    
C15   C25   A    
C29   C37   A    
C57   H29   S    
C18   H14   S    
C67   C68   S    
C29   C33   A    
C52   O14   S    
C7    C27   S    
C30   C38   A    
C35   H5    S    
C40   O10   S    
C50   C52   A    
C54   H22   S    
C2    O3    A    
C36   N4    A    
O16   C59   S    
C33   N3    A    
C48   C51   A    
C20   C24   A    
C49   C51   A    
C62   H43   S    
C9    O17   S    
C32   C38   A    
C29   H15   S    
C3    C13   A    
C19   O19   S    
C45   C47   A    
C72   H67   S    
C60   H38   S    
C28   O7    A    
C70   H61   S    
C41   C43   A    
C68   H57   S    
C18   C25   A    
C42   C44   A    
C30   H16   S    
C44   C46   A    
O20   C67   S    
C67   H55   S    
C61   H39   S    
C3    H7    S    
C16   C26   A    
C41   O11   S    
C46   C48   A    
C42   N2    A    
C17   H13   S    
C30   C34   A    
C28   O6    A    
C56   H26   S    
C27   O5    A    
C69   C70   S    
C4    C6    A    
C66   H53   S    
C5    C7    A    
C22   O22   S    
C43   C49   A    
C6    C8    A    
C36   H6    S    
C25   C26   S    
Cu1   Cu2   S    
C50   H2    S    
C31   C37   A    
C66   H52   S    
C19   C23   A    
C14   N1    S    
C6    O16   S    
C37   C38   S    
C2    O2    A    
C64   H48   S    
C71   C72   S    
C43   C45   A    
C53   H20   S    
C16   C20   A    
C49   H1    S    
O17   C61   S    
C62   H42   S    
C9    C11   A    
C69   H59   S    
C10   C12   A    
C68   H58   S    
C8    C10   A    
C72   H68   S    
C12   C14   A    
C1    C23   S    
C54   H23   S    
C55   H25   S    
Cu2   O4    S    
C2    C24   S    
C64   H46   S    
C8    C28   S    
C31   C35   A    
C58   H33   S    
Cu1   N4    S    
C16   H12   S    
C39   O9    S    
C61   H40   S    
Cu2   O6    S    
C53   C54   S    
C39   C47   A    
O18   C63   S    
C56   H27   S    
C44   C50   A    
C40   C48   A    
C33   H3    S    
C18   C22   A    
C69   H60   S    
C22   C23   A    
C3    C5    A    
C65   C66   S    
C59   H35   S    
C59   H34   S    
C47   C52   A    
C65   H50   S    
C70   H63   S    
C71   H64   S    
C55   C56   S    
O19   C65   S    
Cu1   O7    S    
C61   C62   S    
C60   H37   S    
C63   H44   S    
O13   C53   S    
C10   O18   S    
C71   H65   S    
O22   C71   S    
C66   H51   S    
C51   O13   S    
C11   C13   A    
C53   H19   S    
C62   H41   S    
C57   H30   S    
C31   H17   S    
C40   N2    A    
C39   N1    A    
C4    C14   A    
C17   C21   A    
C59   C60   S    
C65   H49   S    
C41   N1    A    
Cu2   N3    S    
C63   C64   S    
C7    C9    A    
C42   O12   S    
C13   N2    S    
C70   H62   S    
C55   H24   S    
C21   C24   A    
C58   H31   S    
C34   H4    S    
C64   H47   S    
C21   O21   S    
C20   O20   S    
C1    O4    A    
C56   H28   S    
Cu2   O2    S    
Cu1   O1    S    
C60   H36   S    
C34   N4    A    
O21   C69   S    
C57   C58   S    
C15   H11   S    
