data_mof_unit_6096.cif
_audit_creation_date              2012-12-11T14:22:55-0500
_audit_creation_method            fapswitch 2.2
_symmetry_space_group_name_H-M    P1
_symmetry_Int_Tables_number       1
_space_group_crystal_system       triclinic
_cell_length_a                    11.035804
_cell_length_b                    10.926002
_cell_length_c                    18.826864
_cell_angle_alpha                 90.173438
_cell_angle_beta                  89.85497
_cell_angle_gamma                 60.355404
_cell_volume                      1972.92890379

loop_
_atom_site_label
_atom_site_type_symbol
_atom_type_description
_atom_site_fract_x
_atom_site_fract_y
_atom_site_fract_z
_atom_type_partial_charge
C1    C     C_R   0.238021 0.644997 0.610511 0.534607
C2    C     C_3   0.686898 0.542332 0.800319 -0.272427
C3    C     C_3   0.700201 0.674811 0.812280 0.013811
C4    C     C_3   0.669233 0.646504 0.677110 0.077325
C5    C     C_3   0.803505 0.653836 0.688556 -0.240380
C6    C     C_3   0.679026 0.519958 0.720405 -0.262540
C7    C     C_R   0.687128 0.167357 0.826187 -0.015322
C8    C     C_R   0.802090 0.145899 0.783278 0.019532
C9    C     C_R   0.789286 0.145233 0.708115 0.014286
C10   C     C_R   0.543690 0.222024 0.722122 -0.127222
C11   C     C_R   0.557625 0.214210 0.794429 -0.161145
C12   C     C_R   0.652271 0.620417 0.601779 0.568092
C13   C     C_R   0.928369 0.126679 0.811967 -0.091463
C14   C     C_R   0.039758 0.100246 0.767524 -0.140162
C15   C     C_R   0.028316 0.090717 0.694552 -0.134674
C16   C     C_R   0.907272 0.106394 0.665320 -0.088406
C17   C     C_R   0.658138 0.186526 0.677734 0.011655
C18   C     C_R   0.190798 0.659023 0.836727 -0.007773
C19   C     C_R   0.193991 0.545128 0.798874 0.020421
C20   C     C_R   0.185896 0.549961 0.723464 0.018434
C21   C     C_R   0.215347 0.755514 0.726688 -0.152233
C22   C     C_R   0.212312 0.756724 0.799877 -0.155640
C23   C     C_R   0.626142 0.230730 0.603560 0.528662
C24   C     C_R   0.202206 0.427868 0.834389 -0.102448
C25   C     C_R   0.184515 0.327506 0.797790 -0.140677
C26   C     C_R   0.157885 0.342271 0.725318 -0.162797
C27   C     C_R   0.160818 0.450629 0.688069 -0.131412
C28   C     C_R   0.200691 0.655329 0.686795 -0.000630
C29   C     C_R   0.680602 0.694227 0.176939 0.008841
C30   C     C_R   0.724005 0.558063 0.202781 0.029191
C31   C     C_R   0.756404 0.534156 0.274636 0.030104
C32   C     C_R   0.630493 0.786727 0.297272 -0.177117
C33   C     C_R   0.640403 0.806939 0.224804 -0.165293
C34   C     C_R   0.286747 0.622136 0.392446 0.562377
C35   C     C_R   0.757644 0.441858 0.157661 -0.080497
C36   C     C_R   0.862061 0.308650 0.176967 -0.128483
C37   C     C_R   0.920091 0.287711 0.244234 -0.120102
C38   C     C_R   0.865529 0.397731 0.293640 -0.071343
C39   C     C_R   0.682510 0.650206 0.322560 0.004681
C40   C     C_R   0.656564 0.151838 0.177856 -0.051029
C41   C     C_R   0.523884 0.207834 0.209284 0.006147
C42   C     C_R   0.517082 0.191149 0.282573 -0.010460
C43   C     C_R   0.766969 0.105388 0.293954 0.232014
C44   C     C_R   0.777111 0.094677 0.220851 -0.126186
C45   C     C_R   0.647459 0.623362 0.393889 0.536459
C46   C     C_R   0.399854 0.265366 0.168825 -0.069507
C47   C     C_R   0.278610 0.276365 0.197355 -0.120742
C48   C     C_R   0.275714 0.242297 0.267949 -0.148379
C49   C     C_R   0.393525 0.198342 0.310019 -0.091597
C50   C     C_R   0.635480 0.165333 0.324846 0.001878
C51   C     C_R   0.176488 0.653665 0.175179 0.001399
C52   C     C_R   0.262492 0.707690 0.197060 0.029652
C53   C     C_R   0.280641 0.718373 0.270226 0.022274
C54   C     C_R   0.174572 0.571968 0.293113 -0.149545
C55   C     C_R   0.131351 0.588247 0.223499 -0.155975
C56   C     C_R   0.614507 0.227872 0.395439 0.559276
C57   C     C_R   0.312671 0.770167 0.148005 -0.085079
C58   C     C_R   0.341871 0.873395 0.170602 -0.106264
C59   C     C_R   0.337303 0.902182 0.242493 -0.134771
C60   C     C_R   0.318269 0.819109 0.292053 -0.093066
C61   C     C_R   0.248757 0.636792 0.317682 -0.004790
C62   C     C_R   0.702325 0.104186 0.896817 0.536600
C63   C     C_R   0.725011 0.688670 0.887955 0.551505
C64   C     C_R   0.121583 0.703409 0.906647 0.534009
C65   C     C_R   0.676369 0.105752 0.104309 0.523495
C66   C     C_R   0.721485 0.710581 0.105724 0.549234
C67   C     C_3   0.566863 0.806322 0.784298 -0.185802
C68   C     C_R   0.098187 0.705903 0.110442 0.528774
C69   C     C_3   0.542975 0.783719 0.705983 0.158687
C70   C     C_3   0.825993 0.662179 0.768717 -0.229892
Cr1   Cr    Cr6+3 0.392940 0.397950 0.502230 0.973961
Cr2   Cr    Cr6+3 0.398400 0.708500 0.501260 0.969586
Cr3   Cr    Cr6+3 0.708640 0.393530 0.496460 0.998424
Cr4   Cr    Cr6+3 0.937880 0.938320 0.007620 0.986823
Cr5   Cr    Cr6+3 0.625560 0.937220 0.994510 0.989906
Cr6   Cr    Cr6+3 0.938080 0.625010 0.001190 0.991547
H1    H     H_    0.578237 0.901759 0.789465 0.177399
H2    H     H_    0.773758 0.420498 0.704265 0.165486
H3    H     H_    0.922008 0.565945 0.785012 0.173285
H4    H     H_    0.893095 0.558659 0.665483 0.125639
H5    H     H_    0.440503 0.259541 0.701288 0.166560
H6    H     H_    0.941274 0.138531 0.867851 0.140187
H7    H     H_    0.467198 0.235763 0.825751 0.148387
H8    H     H_    0.137185 0.081739 0.789824 0.085782
H9    H     H_    0.113401 0.068791 0.659516 0.081728
H10   H     H_    0.908087 0.087661 0.608915 0.122596
H11   H     H_    0.231041 0.834100 0.701133 0.123116
H12   H     H_    0.474207 0.825327 0.816413 0.078166
H13   H     H_    0.226219 0.410478 0.890369 0.126398
H14   H     H_    0.218487 0.840257 0.827683 0.133433
H15   H     H_    0.189783 0.239968 0.826619 0.105306
H16   H     H_    0.135708 0.269639 0.697305 0.115476
H17   H     H_    0.136571 0.458338 0.632220 0.132798
H18   H     H_    0.583623 0.876167 0.333148 0.106223
H19   H     H_    0.714863 0.456055 0.104661 0.135434
H20   H     H_    0.611648 0.911008 0.205670 0.138343
H21   H     H_    0.900738 0.222957 0.138967 0.126474
H22   H     H_    0.005272 0.185290 0.258611 0.149453
H23   H     H_    0.453634 0.763843 0.705483 0.094679
H24   H     H_    0.918597 0.375633 0.343984 0.145855
H25   H     H_    0.397123 0.297115 0.114197 0.128646
H26   H     H_    0.880948 0.038855 0.198087 0.164896
H27   H     H_    0.186780 0.311598 0.164694 0.117530
H28   H     H_    0.182843 0.247861 0.290252 0.097170
H29   H     H_    0.387974 0.161553 0.362458 0.134212
H30   H     H_    0.139989 0.517926 0.328919 0.142884
H31   H     H_    0.316328 0.749396 0.091514 0.123039
H32   H     H_    0.057874 0.554401 0.208152 0.137722
H33   H     H_    0.367375 0.931423 0.132599 0.137036
H34   H     H_    0.360274 0.981516 0.260482 0.125020
H35   H     H_    0.326613 0.843580 0.346272 0.169066
H36   H     H_    0.841614 0.753671 0.779658 0.130452
H37   H     H_    0.796826 0.746999 0.661088 0.155235
H38   H     H_    0.777973 0.447694 0.823043 0.147404
H39   H     H_    0.591439 0.555020 0.827306 0.118054
H40   H     H_    0.587233 0.506220 0.709577 0.119924
O1    O     O_R   0.507340 0.255690 0.581430 -0.539882
O2    O     O_R   0.524510 0.695820 0.424050 -0.529077
O3    O     O_R   0.736370 0.504260 0.414810 -0.530112
O4    O     O_R   0.691220 0.277270 0.422180 -0.460843
O5    O     O_3   0.499990 0.499990 0.499980 -0.261155
O6    O     O_R   0.089570 0.825450 0.930590 -0.525559
O7    O     O_R   0.818700 0.054260 0.929860 -0.509787
O8    O     O_R   0.606310 0.077010 0.915520 -0.529911
O9    O     O_R   0.646730 0.806540 0.917560 -0.507206
O10   O     O_R   0.837290 0.593240 0.915240 -0.522238
O11   O     O_R   0.065320 0.635310 0.931580 -0.512124
O12   O     O_R   0.280360 0.527380 0.578910 -0.507891
O13   O     O_R   0.068470 0.828620 0.091850 -0.528651
O14   O     O_R   0.799150 0.057200 0.079350 -0.518189
O15   O     O_R   0.585220 0.080180 0.076770 -0.532030
O16   O     O_R   0.627170 0.809480 0.067050 -0.510139
O17   O     O_R   0.816200 0.596410 0.076500 -0.529010
O18   O     O_R   0.045770 0.638240 0.081070 -0.521113
O19   O     O_3   0.833840 0.833520 0.001110 -0.251407
O20   O     O_R   0.260600 0.739610 0.584580 -0.548572
O21   O     O_R   0.532370 0.695050 0.573830 -0.492125
O22   O     O_R   0.744850 0.503430 0.576380 -0.539557
O23   O     O_R   0.699080 0.276500 0.571950 -0.521709
O24   O     O_R   0.498860 0.256520 0.419860 -0.558430
O25   O     O_R   0.272490 0.528150 0.429140 -0.505109
O26   O     O_R   0.252110 0.740440 0.423010 -0.556379
O27   O     O_3   0.886030 0.059413 0.334514 -0.565153
C71   C     C_3   0.909167 0.940786 0.375229 -0.001540
H41   H     H_    0.996557 0.846300 0.350741 0.168065
H42   H     H_    0.819323 0.920742 0.378033 0.093400
C72   C     C_3   0.948488 0.956309 0.450911 -0.330160
H43   H     H_    0.856015 0.037536 0.480012 0.143787
H44   H     H_    0.987819 0.854962 0.479496 0.124651
H45   H     H_    0.030432 0.987165 0.450555 0.175407
O28   O     O_3   0.522117 0.900827 0.664062 -0.561865
C73   C     C_3   0.379952 0.982808 0.646295 -0.024584
H46   H     H_    0.320544 0.039282 0.694588 0.109889
H47   H     H_    0.338321 0.916729 0.624350 0.164308
C74   C     C_3   0.358848 0.087606 0.588238 -0.334066
H48   H     H_    0.449260 0.043828 0.551154 0.188830
H49   H     H_    0.263305 0.113430 0.557557 0.056972
H50   H     H_    0.342486 0.186508 0.612519 0.163372

loop_
_geom_bond_atom_site_label_1
_geom_bond_atom_site_label_2
_ccdc_geom_bond_type
C45   O2    A    
C32   H18   S    
C21   H11   S    
C34   O25   A    
C8    C13   A    
Cr3   O3    S    
Cr2   O5    S    
C74   H49   S    
C58   H33   S    
Cr6   O10   S    
C41   C42   A    
C43   O27   S    
C35   C36   A    
C67   H1    S    
C1    O12   A    
C14   H8    S    
C24   H13   S    
C62   O8    A    
C65   O14   A    
C7    C8    A    
C52   C53   A    
Cr2   O26   S    
C26   C27   A    
C17   C23   S    
C30   C35   A    
C64   O6    A    
C23   O23   A    
C36   C37   A    
C72   H44   S    
C9    C16   A    
C30   C31   A    
C56   O24   A    
Cr5   O19   S    
C6    H2    S    
Cr3   O22   S    
C10   C17   A    
C26   H16   S    
C15   C16   A    
C48   H28   S    
C29   C33   A    
C59   H34   S    
C18   C19   A    
C32   C39   A    
C37   H22   S    
C12   O21   A    
C72   H43   S    
C54   C55   A    
C53   C61   A    
C53   C60   A    
C19   C20   A    
C31   C39   A    
C8    C9    A    
C1    C28   S    
C41   C46   A    
C36   H21   S    
C4    C12   S    
C1    O20   A    
C39   C45   S    
C5    H37   S    
C45   O3    A    
Cr4   O7    S    
C59   C60   A    
Cr3   O4    S    
C21   C22   A    
C74   H50   S    
C16   H10   S    
C56   O4    A    
C2    C6    S    
C71   C72   S    
C4    C69   S    
C65   O15   A    
Cr6   O19   S    
Cr5   O15   S    
C54   C61   A    
C66   O16   A    
Cr2   O21   S    
C46   H25   S    
C25   H15   S    
C47   H27   S    
Cr1   O1    S    
Cr5   O8    S    
C69   O28   S    
C3    C70   S    
C24   C25   A    
C4    C6    S    
C10   C11   A    
C54   H30   S    
C71   H41   S    
C49   H29   S    
Cr3   O23   S    
C11   H7    S    
C58   C59   A    
C13   H6    S    
C34   C61   S    
C50   C56   S    
C15   H9    S    
C51   C52   A    
C67   C69   S    
C7    C11   A    
C43   C44   A    
C7    C62   S    
C37   C38   A    
C66   O17   A    
C2    H39   S    
C47   C48   A    
C73   C74   S    
O28   C73   S    
C64   O11   A    
Cr4   O19   S    
C72   H45   S    
C22   H14   S    
C5    H4    S    
C6    H40   S    
C63   O9    A    
C70   H36   S    
C42   C50   A    
C69   H23   S    
C71   H42   S    
C40   C41   A    
Cr4   O6    S    
C21   C28   A    
C73   H47   S    
Cr3   O5    S    
C40   C65   S    
Cr4   O14   S    
C12   O22   A    
Cr1   O12   S    
C27   H17   S    
C33   H20   S    
Cr5   O16   S    
C9    C17   A    
C46   C47   A    
C34   O26   A    
Cr6   O18   S    
C57   H31   S    
C70   H3    S    
C18   C22   A    
Cr1   O5    S    
C3    C67   S    
C4    C5    S    
C5    C70   S    
C23   O1    A    
Cr6   O17   S    
C43   C50   A    
C67   H12   S    
Cr1   O24   S    
C20   C27   A    
C3    C63   S    
C20   C28   A    
C10   H5    S    
C31   C38   A    
Cr1   O25   S    
C55   H32   S    
C32   C33   A    
C68   O18   A    
C19   C24   A    
C25   C26   A    
C60   H35   S    
C2    H38   S    
C38   H24   S    
C18   C64   S    
C57   C58   A    
C48   C49   A    
C62   O7    A    
C2    C3    S    
C51   C55   A    
C51   C68   S    
C68   O13   A    
C63   O10   A    
Cr2   O20   S    
C52   C57   A    
C42   C49   A    
C29   C30   A    
C29   C66   S    
C40   C44   A    
C73   H46   S    
Cr4   O13   S    
Cr2   O2    S    
C74   H48   S    
Cr6   O11   S    
C14   C15   A    
Cr5   O9    S    
C13   C14   A    
O27   C71   S    
C35   H19   S    
C44   H26   S    
