data_mof_unit_51440.cif
_audit_creation_date              2013-03-05T15:48:38-0500
_audit_creation_method            fapswitch 2.2
_symmetry_space_group_name_H-M    P1
_symmetry_Int_Tables_number       1
_space_group_crystal_system       triclinic
_cell_length_a                    8.210565
_cell_length_b                    18.787323
_cell_length_c                    19.004798
_cell_angle_alpha                 98.664502
_cell_angle_beta                  94.514726
_cell_angle_gamma                 91.450863
_cell_volume                      2887.0704511

loop_
_atom_site_label
_atom_site_type_symbol
_atom_site_description
_atom_site_fract_x
_atom_site_fract_y
_atom_site_fract_z
_atom_type_partial_charge
P1    P     P_3+3 0.947550 0.663200 0.567530 0.461685
O1    O     O_2   0.118870 0.674530 0.547560 -0.364848
O2    O     O_3   0.870460 0.585330 0.542110 -0.404738
O3    O     O_3   0.354280 0.631750 0.418430 -0.348178
O4    O     O_2   0.231227 0.755899 0.470127 -0.388635
O5    O     O_3   0.969663 0.680822 0.660938 -0.576300
O6    O     O_3   0.307559 0.744344 0.339027 -0.493971
H1    H     H_    0.489125 0.675701 0.302174 0.068876
C1    C     C_3   0.373492 0.724622 0.217653 -0.911027
H2    H     H_    0.278966 0.680458 0.202678 0.291446
H3    H     H_    0.320101 0.776517 0.208589 0.251183
P2    P     P_3+3 0.354660 0.445020 0.336980 0.466506
P3    P     P_3+3 0.909759 0.593769 0.287812 0.475180
O7    O     O_2   0.180880 0.466650 0.327890 -0.357942
O8    O     O_3   0.939000 0.596010 0.380670 -0.351586
O9    O     O_2   0.023184 0.537028 0.252968 -0.372044
O10   O     O_3   0.343682 0.351364 0.311458 -0.568419
O11   O     O_3   0.989038 0.673775 0.264820 -0.475611
C2    C     C_3   0.874661 0.727998 0.274475 0.547798
H4    H     H_    0.749800 0.707105 0.253642 -0.001550
C3    C     C_3   0.919168 0.786944 0.231105 -0.992374
H5    H     H_    0.041485 0.811929 0.250908 0.271759
H6    H     H_    0.921496 0.763448 0.173953 0.257577
C4    C     C_3   0.790208 0.381359 0.312141 0.445482
H7    H     H_    0.673353 0.398098 0.333159 0.087173
H8    H     H_    0.883479 0.425967 0.326694 0.134887
C5    C     C_3   0.765969 0.363950 0.231133 -0.988498
H9    H     H_    0.667347 0.321723 0.215122 0.266014
H10   H     H_    0.731740 0.412673 0.207990 0.228646
H11   H     H_    0.881200 0.344372 0.209435 0.269717
Ba1   Ba    Ba6+2 0.152460 0.535140 0.468980 1.552880
C6    C     C_3   0.014143 0.618599 0.688424 0.441711
H12   H     H_    0.129899 0.599841 0.667835 0.090872
H13   H     H_    0.918024 0.575298 0.673822 0.132009
C7    C     C_3   0.036588 0.636806 0.769437 -0.988313
H14   H     H_    0.140381 0.676477 0.785567 0.271020
H15   H     H_    0.061808 0.587783 0.793563 0.227822
H16   H     H_    0.923453 0.659996 0.790145 0.267596
C8    C     C_3   0.296241 0.318070 0.368029 0.453173
H17   H     H_    0.172912 0.334898 0.381006 0.090198
H18   H     H_    0.384130 0.331623 0.415944 0.130367
C9    C     C_3   0.291691 0.236821 0.345052 -1.013149
H19   H     H_    0.200942 0.221419 0.298378 0.269917
H20   H     H_    0.256875 0.208738 0.389204 0.222421
H21   H     H_    0.414232 0.219241 0.330259 0.262060
P4    P     P_3+3 0.862750 0.336790 0.432410 0.455425
O12   O     O_2   0.691430 0.325420 0.452420 -0.373657
O13   O     O_3   0.939830 0.414660 0.457830 -0.404844
O14   O     O_3   0.456020 0.368240 0.581510 -0.386965
O15   O     O_3   0.840929 0.319501 0.338961 -0.573425
P5    P     P_3+3 0.893032 0.401438 0.711244 0.456174
O16   O     O_3   0.374170 0.535780 0.585810 -0.394716
O17   O     O_3   0.871300 0.403980 0.619270 -0.375216
O18   O     O_2   0.755006 0.445161 0.745758 -0.390099
O19   O     O_3   0.853028 0.312970 0.725429 -0.522656
Ba2   Ba    Ba6+2 0.657710 0.464850 0.530960 1.547380
P6    P     P_3+3 0.367501 0.725124 0.424297 0.460488
C10   C     C_3   0.436320 0.728450 0.295620 0.409539
H22   H     H_    0.532217 0.772113 0.308710 0.027673
H23   H     H_    0.475817 0.713748 0.183147 0.197946
O20   O     O_3   0.436130 0.464210 0.414140 -0.408876
C11   C     C_3   0.511729 0.683479 0.644963 0.437181
H24   H     H_    0.635022 0.665454 0.632247 0.094308
H25   H     H_    0.424720 0.670784 0.596610 0.124298
C12   C     C_3   0.520810 0.764797 0.667235 -0.988186
H26   H     H_    0.609587 0.779578 0.714714 0.272550
H27   H     H_    0.561042 0.791596 0.623044 0.220779
H28   H     H_    0.398509 0.784154 0.680414 0.261991
P7    P     P_3+3 0.448593 0.557308 0.675396 0.432028
O21   O     O_2   0.629420 0.533310 0.672080 -0.363980
O22   O     O_3   0.458903 0.650874 0.701359 -0.568511
H29   H     H_    0.826985 0.829333 0.235321 0.221704
C13   C     C_3   0.924116 0.265384 0.673042 0.325615
H30   H     H_    0.844812 0.258144 0.622190 0.152141
H31   H     H_    0.046421 0.285503 0.662415 -0.038895
C14   C     C_3   0.946277 0.192786 0.698820 -0.116110
H32   H     H_    0.027730 0.159501 0.664506 0.082245
H33   H     H_    0.006182 0.201731 0.754158 0.129595
P8    P     P_3+3 0.438646 0.275309 0.577996 0.459659
C15   C     C_3   0.433987 0.308222 0.714037 0.483521
H34   H     H_    0.301770 0.315344 0.702184 -0.008130
O23   O     O_2   0.572550 0.242390 0.531809 -0.372528
O24   O     O_3   0.493769 0.255040 0.663435 -0.484298
H35   H     H_    0.501221 0.360392 0.715232 0.146618
H36   H     H_    0.410618 0.327669 0.827855 0.198890
C16   C     C_3   0.458385 0.285989 0.787669 -0.879460
H37   H     H_    0.590477 0.280180 0.802276 0.300080
H38   H     H_    0.391692 0.233875 0.788048 0.253909
C17   C     C_R   0.997024 0.952412 0.538370 0.047631
C18   C     C_R   0.083604 0.903769 0.575992 -0.188185
C19   C     C_R   0.219569 0.047294 0.564124 -0.199118
C20   C     C_R   0.059835 0.023535 0.535674 0.042694
C21   C     C_R   0.277178 0.117446 0.563973 -0.135316
C22   C     C_R   0.179127 0.167588 0.535256 -0.056648
C23   C     C_R   0.022294 0.144550 0.501835 0.006408
C24   C     C_R   0.962516 0.072161 0.501685 0.069259
C25   C     C_R   0.233091 0.240231 0.539203 0.159127
C26   C     C_R   0.129278 0.289384 0.512253 -0.520254
C27   C     C_R   0.979570 0.267307 0.474321 0.247740
C28   C     C_R   0.926315 0.193581 0.467762 -0.037588
C29   C     C_R   0.840395 0.929422 0.504344 0.041861
C30   C     C_R   0.781172 0.856851 0.503560 0.013155
C31   C     C_R   0.879320 0.807178 0.535712 -0.041994
C32   C     C_R   0.025528 0.833361 0.575045 -0.056546
H39   H     H_    0.169741 0.345305 0.517383 0.180193
H40   H     H_    0.399803 0.131770 0.587378 0.225147
H41   H     H_    0.098621 0.799780 0.605395 0.163449
C33   C     C_R   0.780841 0.167022 0.428001 -0.051161
C34   C     C_R   0.721190 0.097057 0.428451 -0.188362
C35   C     C_R   0.806196 0.049054 0.467431 0.071021
C36   C     C_R   0.742667 0.978201 0.470795 0.062254
C37   C     C_R   0.582249 0.954740 0.443057 -0.188450
C38   C     C_R   0.623876 0.833956 0.470458 -0.013060
C39   C     C_R   0.524732 0.884441 0.442828 -0.180799
C40   C     C_R   0.571466 0.760907 0.464998 0.126760
C41   C     C_R   0.676186 0.711513 0.491183 -0.492954
C42   C     C_R   0.827657 0.733176 0.527727 0.263400
H42   H     H_    0.709576 0.199983 0.396261 0.158586
H43   H     H_    0.401519 0.870182 0.419797 0.169936
H44   H     H_    0.636099 0.655524 0.485814 0.177519
H45   H     H_    0.305362 0.012594 0.586360 0.153359
H46   H     H_    0.197057 0.918570 0.607858 0.130049
H47   H     H_    0.608423 0.081776 0.396172 0.117822
H48   H     H_    0.496096 0.989910 0.421743 0.131959
C43   C     C_R   0.603497 0.534765 0.301904 -0.477773
C44   C     C_R   0.459247 0.495372 0.276707 0.349730
C45   C     C_R   0.403995 0.488725 0.204286 -0.243973
C46   C     C_R   0.495442 0.519942 0.156247 0.029918
C47   C     C_R   0.645463 0.556599 0.182126 -0.292595
C48   C     C_R   0.699869 0.562954 0.254653 0.188243
C49   C     C_R   0.458059 0.567691 0.039585 -0.167225
C50   C     C_R   0.407583 0.558876 0.966648 -0.166306
C51   C     C_R   0.337402 0.492805 0.930949 0.167557
C52   C     C_R   0.316840 0.436095 0.970320 -0.169372
C53   C     C_R   0.367400 0.444910 0.043329 -0.162761
C54   C     C_R   0.439215 0.510770 0.078826 0.166197
C55   C     C_R   0.140885 0.445821 0.823881 -0.293835
C56   C     C_R   0.094504 0.439286 0.750429 0.262079
C57   C     C_R   0.340201 0.506457 0.733676 0.296507
C58   C     C_R   0.387326 0.513516 0.806749 -0.250741
C59   C     C_R   0.288773 0.482952 0.852791 0.017503
C60   C     C_R   0.197601 0.467188 0.705569 -0.513393
H49   H     H_    0.499200 0.543784 0.827578 0.147825
H50   H     H_    0.422164 0.604178 0.938295 0.125495
H51   H     H_    0.510472 0.619396 0.065491 0.120544
H52   H     H_    0.290985 0.458445 0.185482 0.151202
H53   H     H_    0.264947 0.384334 0.944310 0.124716
H54   H     H_    0.353437 0.399545 0.071644 0.124418
H55   H     H_    0.059370 0.424643 0.858445 0.153110
H56   H     H_    0.723256 0.577114 0.145726 0.145694
H57   H     H_    0.160925 0.462868 0.649086 0.168809
H58   H     H_    0.647662 0.538276 0.357527 0.164155
N1    N     N_R   0.789415 0.154037 0.696597 0.294199
O25   O     O_R   0.714148 0.126217 0.635480 -0.390680
O26   O     O_R   0.731579 0.141374 0.755462 -0.361788
N2    N     N_3   0.876455 0.757575 0.350291 -0.202072
H59   H     H_    0.803007 0.802332 0.355387 0.047978
H60   H     H_    0.995126 0.776445 0.369138 0.197763

loop_
_geom_bond_atom_site_label_1
_geom_bond_atom_site_label_2
_geom_bond_distance
_ccdc_geom_bond_type
C50   H50   1.082711 S    
O5    C6    1.395860 S    
P4    C27   1.874796 S    
P7    C57   1.833692 S    
C21   C22   1.399118 A    
C5    H10   1.106908 S    
C13   H31   1.108047 S    
C13   H30   1.110543 S    
Ba1   O20   2.899576 S    
C23   C24   1.433632 A    
C4    C5    1.521025 S    
C20   C24   1.422611 A    
Ba1   O16   2.756496 S    
C15   H35   1.108969 S    
C46   C47   1.411750 A    
C37   C39   1.390572 A    
C25   C26   1.398310 A    
C53   C54   1.408082 A    
C8    H18   1.110032 S    
H36   C16   1.110319 S    
C41   C42   1.395676 A    
C52   H53   1.082844 S    
C29   C30   1.433427 A    
C26   H39   1.081663 S    
P3    O11   1.751299 S    
N2    H59   1.044241 S    
C2    C3    1.530128 S    
C4    H8    1.108878 S    
O11   C2    1.404478 S    
P7    O21   1.565765 D    
C46   C54   1.490089 S    
C57   C60   1.392667 A    
C16   H38   1.110906 S    
P2    C44   1.839730 S    
C40   C41   1.400100 A    
C14   N1    1.457811 S    
P1    Ba1   3.386763 S    
C33   C34   1.392554 A    
P1    O1    1.503726 D    
O10   C8    1.398249 S    
P7    O22   1.750783 S    
C35   C36   1.429624 A    
C11   H25   1.110699 S    
O16   P7    1.746977 S    
H1    C10   1.111775 S    
C43   C48   1.395315 A    
C36   C37   1.413607 A    
C50   C51   1.407713 A    
C12   H27   1.109316 S    
O3    P6    1.741004 S    
C15   C16   1.519551 S    
P3    C48   1.835950 S    
C58   H49   1.082720 S    
C4    H7    1.103074 S    
Ba1   Ba2   4.536846 S    
N1    O26   1.300670 A    
C1    H2    1.110524 S    
O7    Ba1   2.823855 S    
O6    C10   1.402299 S    
C39   H43   1.080747 S    
C17   C29   1.419627 A    
C37   H48   1.077154 S    
C3    H5    1.110849 S    
C5    H11   1.110760 S    
C2    N2    1.462907 S    
C18   H46   1.076634 S    
C55   H55   1.082683 S    
C31   C42   1.425597 A    
C9    H20   1.108000 S    
C15   O24   1.404885 S    
C8    C9    1.521799 S    
C4    O15   1.397624 S    
P4    O13   1.570423 S    
C28   C33   1.400268 A    
C3    H29   1.111007 S    
P1    O5    1.750149 S    
C6    C7    1.521482 S    
C33   H42   1.079367 S    
C7    H16   1.110822 S    
C58   C59   1.410486 A    
P6    C40   1.853955 S    
C49   C54   1.404919 A    
C56   C60   1.394259 A    
C8    H17   1.103702 S    
C16   H37   1.110381 S    
C34   H47   1.077068 S    
C22   C25   1.413445 A    
C10   H22   1.108930 S    
C24   C35   1.419383 A    
O14   P8    1.738923 S    
C38   C40   1.414050 A    
O1    Ba1   2.843820 S    
P1    O2    1.570452 S    
C9    H21   1.110767 S    
C6    H13   1.107531 S    
C60   H57   1.082205 S    
P2    O10   1.751383 S    
C11   H24   1.108632 S    
C43   H58   1.082010 S    
C21   H40   1.078736 S    
C19   C21   1.389450 A    
O2    Ba2   2.795819 S    
C27   C28   1.426180 A    
C12   H28   1.110842 S    
C22   C23   1.417424 A    
P1    C42   1.875503 S    
C14   H32   1.109309 S    
C17   C20   1.429664 A    
O2    Ba1   2.898969 S    
C1    H3    1.110310 S    
C18   C32   1.391752 A    
P2    O7    1.497511 D    
C12   H26   1.110566 S    
Ba2   O21   2.824001 S    
Ba1   O13   2.795231 S    
P3    O8    1.756169 S    
P2    Ba1   3.381470 S    
C51   C52   1.405164 A    
C13   C14   1.527501 S    
C9    H19   1.110588 S    
C45   C46   1.410033 A    
C17   C18   1.414727 A    
C19   C20   1.413377 A    
C38   C39   1.399961 A    
O17   Ba2   2.723314 S    
O13   Ba2   2.899803 S    
C55   C59   1.414037 A    
P4    O12   1.504107 D    
C1    C10   1.520705 S    
C11   C12   1.520901 S    
C7    H15   1.106045 S    
C23   C28   1.423041 A    
P8    C25   1.851395 S    
C14   H33   1.112353 S    
C15   H34   1.106823 S    
P8    O23   1.544179 D    
C57   C58   1.397579 A    
O8    Ba1   2.722670 S    
C52   C53   1.400568 A    
C29   C36   1.422299 A    
O14   Ba2   2.753767 S    
C55   C56   1.403951 A    
P4    O15   1.750679 S    
C51   C59   1.489995 S    
O4    P6    1.542488 D    
P5    O18   1.546336 D    
C6    H12   1.102070 S    
C1    H23   1.110258 S    
C2    H4    1.109380 S    
C3    H6    1.110952 S    
C47   C48   1.401591 A    
C47   H56   1.082817 S    
C30   C38   1.418151 A    
C34   C35   1.414579 A    
P8    O24   1.750920 S    
P2    O20   1.549793 S    
C43   C44   1.392593 A    
O16   Ba2   2.898743 S    
C44   C45   1.400989 A    
N2    H60   1.045304 S    
C11   O22   1.403451 S    
C49   H51   1.082853 S    
P5    O19   1.750540 S    
C53   H54   1.082618 S    
C30   C31   1.423391 A    
O3    Ba1   2.754421 S    
C45   H52   1.082630 S    
O19   C13   1.407445 S    
P5    C56   1.839433 S    
C41   H44   1.081682 S    
C26   C27   1.395429 A    
C19   H45   1.076652 S    
P3    O9    1.541710 D    
P4    Ba2   3.387361 S    
C31   C32   1.399959 A    
Ba2   O20   2.755719 S    
C7    H14   1.110662 S    
P5    O17   1.750972 S    
N1    O25   1.300737 A    
O6    P6    1.748868 S    
C32   H41   1.079448 S    
C49   C50   1.399111 A    
O12   Ba2   2.844330 S    
C5    H9    1.110665 S    
