data_mof_unit_43339.cif
_audit_creation_date              2012-10-26T17:12:46-0400
_audit_creation_method            fapswitch 2.2
_symmetry_space_group_name_H-M    P1
_symmetry_Int_Tables_number       1
_space_group_crystal_system       triclinic
_cell_length_a                    28.264116
_cell_length_b                    18.712165
_cell_length_c                    16.972553
_cell_angle_alpha                 89.759532
_cell_angle_beta                  61.991587
_cell_angle_gamma                 90.042557
_cell_volume                      7925.04535455

loop_
_atom_site_label
_atom_site_type_symbol
_atom_type_description
_atom_site_fract_x
_atom_site_fract_y
_atom_site_fract_z
_atom_type_partial_charge
C1    C     C_R   0.292110 0.723292 0.331577 0.575694
C2    C     C_R   0.593596 0.999479 0.519761 0.022238
C3    C     C_R   0.694558 0.709969 0.905534 0.001048
C4    C     C_R   0.117252 0.827646 0.044970 -0.116443
C5    C     C_R   0.880535 0.169239 0.956150 -0.108156
C6    C     C_R   0.877404 0.834089 0.960372 -0.109341
C7    C     C_R   0.146352 0.124106 0.016778 -0.106126
C8    C     C_R   0.635006 0.356438 0.032340 -0.119647
C9    C     C_R   0.376207 0.666831 0.959915 -0.111575
C10   C     C_R   0.358453 0.363582 0.975390 -0.116561
C11   C     C_R   0.640345 0.632186 0.029028 -0.109572
C12   C     C_R   0.146468 0.815562 0.090052 -0.145235
C13   C     C_R   0.904289 0.500636 0.484875 0.018170
C14   C     C_R   0.848561 0.176964 0.914691 -0.142778
C15   C     C_R   0.846843 0.825545 0.917102 -0.140325
C16   C     C_R   0.166830 0.148885 0.071225 -0.141485
C17   C     C_R   0.667611 0.347862 0.070777 -0.153152
C18   C     C_R   0.344717 0.676301 0.917765 -0.144582
C19   C     C_R   0.325743 0.353072 0.937382 -0.150514
C20   C     C_R   0.661045 0.662022 0.080863 -0.144316
C21   C     C_R   0.245858 0.688906 0.796834 0.146304
C22   C     C_R   0.749072 0.301084 0.208215 0.148030
C23   C     C_R   0.739490 0.713254 0.222398 0.176933
C24   C     C_R   0.092094 0.500375 0.527376 0.019200
C25   C     C_R   0.238950 0.315570 0.803970 0.136231
C26   C     C_R   0.746566 0.191592 0.798332 0.144968
C27   C     C_R   0.227973 0.753672 0.232066 0.155964
C28   C     C_R   0.245670 0.201398 0.217808 0.173665
C29   C     C_R   0.769374 0.757217 0.772656 0.157461
C30   C     C_R   0.266570 0.669224 0.853240 -0.133203
C31   C     C_R   0.739831 0.334912 0.144521 -0.125012
C32   C     C_R   0.703814 0.729246 0.188848 -0.133675
C33   C     C_R   0.251295 0.343362 0.867926 -0.128776
C34   C     C_R   0.767365 0.172277 0.855065 -0.132783
C35   C     C_R   0.593235 0.870200 0.509912 -0.118224
C36   C     C_R   0.211549 0.792366 0.179472 -0.130532
C37   C     C_R   0.207559 0.208394 0.186981 -0.133388
C38   C     C_R   0.784645 0.798816 0.824681 -0.129941
C39   C     C_R   0.926870 0.901342 0.066088 0.552105
C40   C     C_R   0.076092 0.093747 0.931410 0.555382
C41   C     C_R   0.072997 0.901104 0.934328 0.544910
C42   C     C_R   0.926907 0.098446 0.065777 0.558450
C43   C     C_R   0.424922 0.403961 0.067480 0.558254
C44   C     C_R   0.575875 0.593432 0.932080 0.559205
C45   C     C_R   0.574661 0.403585 0.933062 0.554050
C46   C     C_R   0.412267 0.129411 0.465820 -0.116445
C47   C     C_R   0.426441 0.597610 0.066057 0.557163
C48   C     C_R   0.040088 0.629609 0.529569 -0.004611
C49   C     C_R   0.949395 0.372060 0.504285 0.003221
C50   C     C_R   0.955930 0.629673 0.484264 -0.002626
C51   C     C_R   0.043467 0.371874 0.516311 0.003354
C52   C     C_R   0.542826 0.128977 0.518333 0.004436
C53   C     C_R   0.455401 0.871199 0.479327 0.012569
C54   C     C_R   0.453575 0.129772 0.488179 0.007413
C55   C     C_R   0.546055 0.870616 0.504344 0.002280
C56   C     C_R   0.018597 0.694367 0.518903 -0.138268
C57   C     C_R   0.414012 0.872175 0.457512 -0.105404
C58   C     C_R   0.971955 0.307039 0.510303 -0.129467
C59   C     C_R   0.977927 0.694384 0.493870 -0.136237
C60   C     C_R   0.019234 0.306925 0.514529 -0.129963
C61   C     C_R   0.520054 0.193982 0.512230 -0.135879
C62   C     C_R   0.478956 0.806177 0.481654 -0.126833
C63   C     C_R   0.476034 0.194371 0.496242 -0.132231
C64   C     C_R   0.523742 0.805812 0.494990 -0.132691
C65   C     C_R   0.975259 0.565386 0.499949 0.022302
C66   C     C_R   0.020177 0.436765 0.514299 0.026714
C67   C     C_R   0.019789 0.565313 0.516315 0.022767
C68   C     C_R   0.586681 0.128366 0.534440 -0.127078
C69   C     C_R   0.972996 0.436864 0.506429 0.026971
C70   C     C_R   0.474629 0.064795 0.498235 0.025524
C71   C     C_R   0.521899 0.935471 0.504961 0.026293
C72   C     C_R   0.520913 0.064417 0.509789 0.026531
C73   C     C_R   0.475510 0.935727 0.494143 0.024115
C74   C     C_R   0.451468 0.000384 0.490786 -0.007306
C75   C     C_R   0.545197 0.999756 0.512542 -0.005458
C76   C     C_R   0.950641 0.501037 0.496844 -0.007978
C77   C     C_R   0.043891 0.500874 0.519954 -0.007491
C78   C     C_R   0.383560 0.935214 0.467652 -0.000034
C79   C     C_R   0.090953 0.370922 0.520116 -0.114618
C80   C     C_R   0.616003 0.065082 0.528172 0.000048
C81   C     C_R   0.618716 0.933669 0.518277 0.003119
C82   C     C_R   0.382893 0.066231 0.470829 0.001546
C83   C     C_R   0.879348 0.434783 0.484691 0.002375
C84   C     C_R   0.113709 0.565612 0.538137 -0.006976
C85   C     C_R   0.117476 0.434451 0.524716 0.002957
C86   C     C_R   0.883890 0.565726 0.470297 -0.009475
C87   C     C_R   0.333759 0.935263 0.465294 -0.022254
C88   C     C_R   0.666531 0.064879 0.529987 -0.026077
C89   C     C_R   0.668053 0.934399 0.524347 -0.018746
C90   C     C_R   0.914987 0.628559 0.460144 -0.132591
C91   C     C_R   0.333437 0.065660 0.466767 -0.022034
C92   C     C_R   0.831496 0.434992 0.475530 -0.019187
C93   C     C_R   0.165495 0.565313 0.535280 -0.027306
C94   C     C_R   0.167539 0.434793 0.527802 -0.019839
C95   C     C_R   0.833799 0.565416 0.467892 -0.025251
C96   C     C_R   0.309743 0.000452 0.464761 -0.171451
C97   C     C_R   0.690550 0.999635 0.529420 -0.174166
C98   C     C_R   0.809342 0.500130 0.468962 -0.172072
C99   C     C_R   0.190457 0.500054 0.531593 -0.174912
C100  C     C_3   0.259486 0.593387 0.688717 -0.266846
C101  C     C_R   0.904854 0.371354 0.492330 -0.114945
C102  C     C_3   0.664075 0.259674 0.327767 -0.253534
C103  C     C_3   0.731364 0.609406 0.328929 -0.232204
C104  C     C_3   0.325546 0.319871 0.669961 -0.246092
C105  C     C_3   0.757519 0.095260 0.692558 -0.264237
C106  C     C_3   0.163910 0.661271 0.314970 -0.285924
C107  C     C_3   0.242690 0.104053 0.325244 -0.235701
C108  C     C_3   0.827130 0.657312 0.696424 -0.282041
C109  C     C_R   0.704381 0.268600 0.671534 0.560844
C110  C     C_R   0.082645 0.628448 0.550093 -0.134090
C111  C     C_R   0.213921 0.755533 0.961442 0.027771
C112  C     C_R   0.785779 0.243357 0.040322 0.026796
C113  C     C_R   0.775415 0.774871 0.051730 0.028068
C114  C     C_R   0.209567 0.245798 0.967748 0.027090
C115  C     C_R   0.723299 0.268914 0.952709 0.028343
C116  C     C_R   0.274923 0.727805 0.051528 0.026389
C117  C     C_R   0.267873 0.278647 0.061236 0.028761
C118  C     C_R   0.719060 0.737266 0.956797 0.024968
C119  C     C_R   0.258348 0.710111 0.925488 -0.014131
C120  C     C_R   0.707474 0.723918 0.669216 0.579361
C121  C     C_R   0.746460 0.296090 0.071133 -0.008840
C122  C     C_R   0.724784 0.742377 0.096887 -0.009049
C123  C     C_R   0.245688 0.302523 0.940110 -0.011378
C124  C     C_R   0.763606 0.217166 0.921629 -0.014747
C125  C     C_R   0.228069 0.769783 0.092411 -0.010500
C126  C     C_R   0.222930 0.233936 0.100879 -0.011372
C127  C     C_R   0.765065 0.781463 0.915424 -0.010397
C128  C     C_R   0.292338 0.702964 0.964924 0.018895
C129  C     C_R   0.713716 0.307053 0.030004 0.024226
C130  C     C_R   0.699396 0.716899 0.047376 0.022137
C131  C     C_R   0.296122 0.267730 0.328871 0.556031
C132  C     C_R   0.278949 0.313484 0.980603 0.023501
C133  C     C_R   0.798434 0.209695 0.959643 0.018487
C134  C     C_R   0.197108 0.783461 0.047543 0.021585
C135  C     C_R   0.197665 0.211116 0.049500 0.021482
C136  C     C_R   0.794918 0.796874 0.961530 0.021210
C137  C     C_R   0.139060 0.815254 0.952430 0.011155
C138  C     C_R   0.859680 0.181887 0.048817 0.011684
C139  C     C_R   0.856307 0.822127 0.052779 0.011273
C140  C     C_R   0.151062 0.163327 0.941816 0.012279
C141  C     C_R   0.648496 0.330636 0.945787 0.014576
C142  C     C_R   0.794635 0.229173 0.329358 0.566969
C143  C     C_R   0.354279 0.674273 0.053384 0.011206
C144  C     C_R   0.346918 0.335591 0.060413 0.013609
C145  C     C_R   0.651484 0.660929 0.944447 0.012146
C146  C     C_R   0.116003 0.844272 0.900042 -0.028772
C147  C     C_R   0.883166 0.153620 0.100803 -0.026996
C148  C     C_R   0.882850 0.845888 0.101806 -0.029857
C149  C     C_R   0.123061 0.143552 0.893703 -0.027009
C150  C     C_R   0.620332 0.351080 0.897483 -0.025663
C151  C     C_R   0.380335 0.648571 0.103146 -0.026906
C152  C     C_R   0.378437 0.352146 0.104484 -0.026258
C153  C     C_R   0.204278 0.768394 0.671441 0.561964
C154  C     C_R   0.624224 0.639455 0.894539 -0.023560
C155  C     C_R   0.138508 0.824839 0.810201 -0.179443
C156  C     C_R   0.860147 0.171656 0.191203 -0.176732
C157  C     C_R   0.862746 0.823240 0.190214 -0.178608
C158  C     C_R   0.140097 0.171722 0.808508 -0.179777
C159  C     C_R   0.639486 0.326350 0.810147 -0.180888
C160  C     C_R   0.357937 0.665046 0.193711 -0.179745
C161  C     C_R   0.362333 0.323404 0.189446 -0.177880
C162  C     C_R   0.643442 0.662389 0.806666 -0.183982
C163  C     C_R   0.181817 0.776890 0.770037 -0.024098
C164  C     C_R   0.203990 0.232086 0.671615 0.576352
C165  C     C_R   0.815346 0.216985 0.232433 -0.026220
C166  C     C_R   0.817311 0.778862 0.232109 -0.023636
C167  C     C_R   0.182046 0.221506 0.770088 -0.021685
C168  C     C_R   0.683022 0.278983 0.769822 -0.024604
C169  C     C_R   0.309670 0.702243 0.238041 -0.023547
C170  C     C_R   0.318187 0.277054 0.231135 -0.021075
C171  C     C_R   0.689878 0.703016 0.763792 -0.026546
C172  C     C_R   0.204981 0.745018 0.823109 0.028985
C173  C     C_R   0.791257 0.247076 0.180538 0.021944
C174  C     C_R   0.788926 0.755362 0.184375 0.039735
C175  C     C_R   0.795465 0.769097 0.329296 0.556106
C176  C     C_R   0.203344 0.253642 0.825701 0.026508
C177  C     C_R   0.707697 0.249943 0.822131 0.030395
C178  C     C_R   0.280032 0.720963 0.191344 0.025298
C179  C     C_R   0.289695 0.252870 0.183767 0.042886
C180  C     C_R   0.717666 0.724584 0.812847 0.023813
C181  C     C_R   0.197120 0.631609 0.525352 0.544296
C182  C     C_R   0.801521 0.368704 0.479213 0.558663
C183  C     C_R   0.802627 0.631609 0.475462 0.545005
C184  C     C_R   0.198159 0.368657 0.521607 0.562474
C185  C     C_R   0.697551 0.131336 0.523425 0.543641
C186  C     C_R   0.405281 0.000596 0.478518 0.020422
C187  C     C_R   0.302606 0.868549 0.474865 0.556750
C188  C     C_R   0.302353 0.131670 0.475810 0.546579
C189  C     C_R   0.698338 0.868591 0.520685 0.562533
C190  C     C_R   0.185545 0.771469 0.912143 0.004720
C191  C     C_R   0.812982 0.224732 0.089961 0.003593
C192  C     C_R   0.806703 0.784737 0.096965 0.006979
C193  C     C_R   0.186781 0.222273 0.912405 0.003670
C194  C     C_R   0.692477 0.282446 0.906978 0.004131
C195  C     C_R   0.303816 0.708731 0.098608 0.002925
C196  C     C_R   0.301588 0.289243 0.102412 0.005623
Cu1   Cu    Cu3+1 0.209920 0.785290 0.495070 0.904508
Cu2   Cu    Cu3+1 0.504760 0.500000 0.075850 0.889096
Cu3   Cu    Cu3+1 0.995240 1.000000 0.924150 0.899486
Cu4   Cu    Cu3+1 0.004760 0.000000 0.075850 0.899238
Cu5   Cu    Cu3+1 0.790080 0.214710 0.504930 0.894036
Cu6   Cu    Cu3+1 0.790080 0.785290 0.504930 0.906298
Cu7   Cu    Cu3+1 0.209920 0.214710 0.495070 0.858755
Cu8   Cu    Cu3+1 0.709920 0.285290 0.495070 0.898677
Cu9   Cu    Cu3+1 0.290080 0.714710 0.504930 0.897120
Cu10  Cu    Cu3+1 0.290080 0.285290 0.504930 0.885148
Cu11  Cu    Cu3+1 0.709920 0.714710 0.495070 0.855551
Cu12  Cu    Cu3+1 0.495240 0.500000 0.924150 0.895019
H1    H     H_    0.541768 0.754815 0.495567 0.092996
H2    H     H_    0.728530 0.999705 0.530723 0.150464
H3    H     H_    0.771749 0.500084 0.466566 0.152220
H4    H     H_    0.229371 0.500113 0.529465 0.150762
H5    H     H_    0.607219 0.816973 0.504260 0.162841
H6    H     H_    0.407933 0.178432 0.436767 0.148642
H7    H     H_    0.410542 0.823945 0.423592 0.144313
H8    H     H_    0.593635 0.178598 0.557098 0.152937
H9    H     H_    0.102122 0.315829 0.521618 0.160490
H10   H     H_    0.908831 0.677797 0.433607 0.154451
H11   H     H_    0.895933 0.317630 0.483792 0.163307
H12   H     H_    0.459196 0.245100 0.491070 0.092546
H13   H     H_    0.090556 0.678039 0.573271 0.154078
H14   H     H_    0.122787 0.849645 0.769603 0.158874
H15   H     H_    0.876922 0.148426 0.231116 0.160694
H16   H     H_    0.881453 0.843328 0.228666 0.158058
H17   H     H_    0.121682 0.151678 0.769670 0.159288
H18   H     H_    0.620985 0.346655 0.771298 0.158587
H19   H     H_    0.378163 0.647625 0.230959 0.159804
H20   H     H_    0.382954 0.340585 0.226165 0.156874
H21   H     H_    0.622691 0.646419 0.769840 0.160096
H22   H     H_    0.076664 0.844233 0.086914 0.153464
H23   H     H_    0.462776 0.755799 0.473072 0.099070
H24   H     H_    0.921523 0.154806 0.912802 0.153399
H25   H     H_    0.918968 0.846288 0.916585 0.151414
H26   H     H_    0.130497 0.070640 0.032512 0.156056
H27   H     H_    0.599378 0.382605 0.078181 0.161438
H28   H     H_    0.417711 0.655215 0.916453 0.152795
H29   H     H_    0.392524 0.393325 0.930571 0.164160
H30   H     H_    0.619941 0.582424 0.055635 0.154806
H31   H     H_    0.126538 0.828677 0.159901 0.095737
H32   H     H_    0.865211 0.162093 0.845230 0.099586
H33   H     H_    0.867015 0.838559 0.847098 0.096175
H34   H     H_    0.537178 0.244465 0.517270 0.089953
H35   H     H_    0.161682 0.114841 0.126326 0.095975
H36   H     H_    0.653146 0.370184 0.136593 0.092057
H37   H     H_    0.363051 0.666501 0.846652 0.100326
H38   H     H_    0.339823 0.374131 0.870627 0.095730
H39   H     H_    0.650367 0.635943 0.144107 0.090407
H40   H     H_    0.293980 0.624488 0.834471 0.106371
H41   H     H_    0.716320 0.383194 0.163745 0.097836
H42   H     H_    0.662954 0.710609 0.227373 0.097661
H43   H     H_    0.272141 0.394234 0.853624 0.103799
H44   H     H_    0.792476 0.125322 0.839207 0.110355
H45   H     H_    0.036812 0.255768 0.515974 0.093643
H46   H     H_    0.178948 0.829367 0.212908 0.090565
H47   H     H_    0.170720 0.178673 0.222361 0.097001
H48   H     H_    0.817717 0.835410 0.789368 0.089465
H49   H     H_    0.317238 0.662520 0.686953 0.230407
H50   H     H_    0.286713 0.581373 0.617250 0.150972
H51   H     H_    0.218302 0.598168 0.697510 0.168289
H52   H     H_    0.262642 0.549174 0.729594 0.101267
H53   H     H_    0.692391 0.364465 0.309841 0.222897
H54   H     H_    0.637866 0.267132 0.400480 0.136118
H55   H     H_    0.680999 0.204798 0.317419 0.169689
H56   H     H_    0.962426 0.744909 0.484695 0.097442
H57   H     H_    0.639514 0.265567 0.292975 0.115617
H58   H     H_    0.710345 0.609163 0.231725 0.227908
H59   H     H_    0.696553 0.633862 0.387282 0.169603
H60   H     H_    0.770070 0.613599 0.329601 0.200461
H61   H     H_    0.722162 0.551167 0.333925 0.088528
H62   H     H_    0.268271 0.402044 0.714735 0.224113
H63   H     H_    0.341852 0.327797 0.596702 0.144903
H64   H     H_    0.326887 0.260888 0.682656 0.164323
H65   H     H_    0.352208 0.348641 0.690900 0.088639
H66   H     H_    0.817048 0.161736 0.689157 0.228782
H67   H     H_    0.953827 0.256070 0.509494 0.093962
H68   H     H_    0.784257 0.082116 0.621267 0.152613
H69   H     H_    0.716407 0.101806 0.701537 0.168181
H70   H     H_    0.759757 0.050982 0.734175 0.113883
H71   H     H_    0.156571 0.769034 0.347896 0.231241
H72   H     H_    0.132035 0.648420 0.382346 0.162262
H73   H     H_    0.195474 0.619007 0.295008 0.156536
H74   H     H_    0.145834 0.661821 0.269074 0.135792
H75   H     H_    0.230894 0.092308 0.218859 0.234011
H76   H     H_    0.205200 0.126880 0.379777 0.174290
H77   H     H_    0.279732 0.114443 0.329705 0.200200
H78   H     H_    0.034857 0.744917 0.526031 0.097720
H79   H     H_    0.236961 0.044978 0.331780 0.096182
H80   H     H_    0.844561 0.764360 0.660389 0.230921
H81   H     H_    0.855101 0.638600 0.628763 0.163988
H82   H     H_    0.791437 0.621256 0.723742 0.152854
H83   H     H_    0.847887 0.653782 0.738110 0.135692
H84   H     H_    0.271319 0.000406 0.465069 0.151942
N1    N     N_2   0.276281 0.659929 0.710303 -0.468743
N2    N     N_2   0.706642 0.312766 0.295787 -0.465130
N3    N     N_2   0.737443 0.637701 0.245137 -0.515972
N4    N     N_2   0.270124 0.346585 0.717177 -0.462948
N5    N     N_2   0.776070 0.161023 0.712576 -0.472697
N6    N     N_2   0.186231 0.730775 0.316439 -0.461002
N7    N     N_2   0.251947 0.127734 0.238345 -0.520704
N8    N     N_2   0.811510 0.730407 0.691161 -0.464207
O1    O     O_R   0.255040 0.869590 0.478480 -0.509908
O2    O     O_R   0.817950 0.203450 0.375560 -0.513734
O3    O     O_R   0.817950 0.796550 0.375560 -0.513815
O4    O     O_R   0.182050 0.203450 0.624440 -0.512105
O5    O     O_R   0.682050 0.296550 0.624440 -0.517174
O6    O     O_R   0.317950 0.703450 0.375560 -0.520260
O7    O     O_R   0.317950 0.296550 0.375560 -0.513126
O8    O     O_R   0.682050 0.703450 0.624440 -0.513122
O9    O     O_R   0.250530 0.763330 0.367210 -0.470778
O10   O     O_R   0.749470 0.236670 0.632790 -0.461803
O11   O     O_R   0.749470 0.763330 0.632790 -0.466380
O12   O     O_R   0.744960 0.130410 0.521520 -0.522348
O13   O     O_R   0.250530 0.236670 0.367210 -0.515397
O14   O     O_R   0.750530 0.263330 0.367210 -0.459556
O15   O     O_R   0.249470 0.736670 0.632790 -0.458516
O16   O     O_R   0.249470 0.263330 0.632790 -0.463019
O17   O     O_R   0.750530 0.736670 0.367210 -0.517414
O18   O     O_R   0.177260 0.690030 0.513710 -0.515406
O19   O     O_R   0.822740 0.309970 0.486290 -0.530390
O20   O     O_R   0.822740 0.690030 0.486290 -0.514181
O21   O     O_R   0.177260 0.309970 0.513710 -0.530410
O22   O     O_R   0.677260 0.190030 0.513710 -0.532089
O23   O     O_R   0.744960 0.869590 0.521520 -0.507550
O24   O     O_R   0.322740 0.809970 0.486290 -0.517752
O25   O     O_R   0.322740 0.190030 0.486290 -0.527014
O26   O     O_R   0.677260 0.809970 0.513710 -0.530425
O27   O     O_R   0.051640 0.926880 0.885090 -0.510158
O28   O     O_R   0.948360 0.073120 0.114910 -0.501355
O29   O     O_R   0.948360 0.926880 0.114910 -0.509344
O30   O     O_R   0.051640 0.073120 0.885090 -0.509505
O31   O     O_R   0.551640 0.426880 0.885090 -0.505099
O32   O     O_R   0.448360 0.573120 0.114910 -0.504099
O33   O     O_R   0.448360 0.426880 0.114910 -0.504679
O34   O     O_R   0.255040 0.130410 0.478480 -0.541166
O35   O     O_R   0.551640 0.573120 0.885090 -0.510369
O36   O     O_R   0.940620 0.926560 0.986760 -0.518021
O37   O     O_R   0.059380 0.073440 0.013240 -0.518464
O38   O     O_R   0.059380 0.926560 0.013240 -0.528183
O39   O     O_R   0.940620 0.073440 0.986760 -0.517080
O40   O     O_R   0.440620 0.426560 0.986760 -0.525710
O41   O     O_R   0.559380 0.573440 0.013240 -0.525737
O42   O     O_R   0.559380 0.426560 0.013240 -0.533304
O43   O     O_R   0.440620 0.573440 0.986760 -0.521039
O44   O     O_R   0.755040 0.369590 0.478480 -0.505592
O45   O     O_R   0.244960 0.630410 0.521520 -0.526746
O46   O     O_R   0.244960 0.369590 0.521520 -0.503488
O47   O     O_R   0.755040 0.630410 0.478480 -0.541865
O48   O     O_R   0.182050 0.796550 0.624440 -0.519627

loop_
_geom_bond_atom_site_label_1
_geom_bond_atom_site_label_2
_ccdc_geom_bond_type
C38   H48   S    
C91   C188  S    
C9    C143  A    
C182  O44   A    
H71   N6    S    
C30   H40   S    
C124  C133  A    
C156  H15   S    
C50   C59   A    
C52   C61   A    
C108  H83   S    
C54   C63   A    
C58   C60   A    
C61   C63   A    
C117  C132  A    
C62   C64   A    
C91   C96   A    
C116  C195  A    
C93   C181  S    
C50   C90   A    
C113  C122  A    
Cu1   O18   S    
C70   C74   A    
C157  H16   S    
C102  H54   S    
C78   C186  A    
C103  H59   S    
C4    C12   A    
C24   C85   A    
C28   N7    S    
C88   C97   A    
C119  C128  A    
C143  C151  A    
Cu3   Cu4   S    
C49   C69   A    
C188  O34   A    
Cu7   O13   S    
C42   C147  S    
C158  C167  A    
C39   O29   A    
C11   C20   A    
C166  C174  A    
C150  C159  A    
C137  C146  A    
C127  C136  A    
C31   C121  A    
C139  C192  A    
C97   H2    S    
C71   C73   A    
C172  C190  A    
Cu2   Cu12  S    
C173  C191  A    
C82   C91   A    
H58   N3    S    
C51   C66   A    
C52   C72   A    
C3    C118  A    
C101  H11   S    
Cu11  O47   S    
C54   C70   A    
H80   N8    S    
Cu2   O33   S    
C163  C172  A    
C106  N6    S    
Cu7   O21   S    
Cu3   O39   S    
C120  O11   A    
C154  C162  A    
C79   C85   A    
Cu8   O14   S    
C21   C30   A    
C66   C77   A    
C34   C124  A    
C105  H68   S    
C57   C78   A    
C96   H84   S    
C187  O1    A    
C87   C187  S    
C56   C59   A    
C21   C172  A    
C98   H3    S    
C189  O23   A    
C8    C17   A    
C160  H19   S    
C44   C154  S    
C104  H63   S    
C80   C88   A    
C92   C182  S    
C23   C32   A    
C112  C191  A    
C43   O40   A    
C95   C183  S    
Cu7   O34   S    
C84   C93   A    
C48   C67   A    
C175  O3    A    
C162  H21   S    
C86   C95   A    
H62   N4    S    
C8    H27   S    
H75   N7    S    
C24   C77   A    
Cu11  O17   S    
Cu1   O9    S    
C2    C81   A    
C56   H78   S    
C110  H13   S    
C17   C129  A    
C55   C71   A    
C2    C75   A    
C78   C87   A    
C48   C110  A    
C123  C132  A    
C138  C191  A    
C67   C77   A    
C27   C178  A    
C23   C174  A    
C188  O25   A    
C153  C163  S    
C164  O4    A    
C79   H9    S    
Cu12  O31   S    
C109  O5    A    
C31   H41   S    
C69   C76   A    
C111  C119  A    
C108  H81   S    
C6    C139  A    
Cu6   O23   S    
C18   C128  A    
C4    C137  A    
C46   C82   A    
Cu2   O41   S    
C108  H82   S    
C41   C146  S    
C189  O26   A    
C8    C141  A    
C176  C193  A    
C43   O33   A    
C140  C193  A    
C152  C161  A    
C185  O22   A    
Cu12  O40   S    
C100  H51   S    
Cu11  O26   S    
C12   C134  A    
Cu10  O46   S    
C105  H70   S    
C72   C75   A    
C141  C150  A    
C20   H39   S    
C55   C64   A    
C139  C148  A    
C42   O39   A    
C57   H7    S    
C21   N1    S    
Cu8   O5    S    
H66   N5    S    
C183  O47   A    
C15   C136  A    
C155  C163  A    
C185  O12   A    
C36   H46   S    
C26   N5    S    
C106  H74   S    
C109  O10   A    
C107  H79   S    
C3    C180  A    
C109  C168  S    
Cu4   O37   S    
C10   C144  A    
C149  C158  A    
C145  C154  A    
C88   C185  S    
C115  C194  A    
C3    C145  A    
C116  C125  A    
C118  C127  A    
C114  C123  A    
C22   C173  A    
C37   C126  A    
C117  C126  A    
C26   C177  A    
C19   C132  A    
C113  C192  A    
C131  O7    A    
C83   C101  A    
Cu7   O4    S    
Cu9   O24   S    
C111  C134  A    
C103  N3    S    
C144  C196  A    
C14   C133  A    
C170  C179  A    
Cu6   Cu11  S    
C112  C121  A    
C144  C152  A    
C107  N7    S    
C14   H32   S    
C18   H37   S    
C28   C37   A    
C148  C157  A    
C50   C65   A    
C51   C79   A    
C90   H10   S    
C43   C152  S    
C137  C190  A    
C9    C18   A    
C10   H29   S    
C102  H55   S    
C153  O48   A    
C51   C60   A    
C74   C186  A    
C140  C149  A    
C19   H38   S    
C174  C192  A    
C125  C134  A    
Cu3   O30   S    
C15   H33   S    
C175  O17   A    
C73   C74   A    
Cu1   Cu9   S    
C42   O28   A    
C102  N2    S    
C11   H30   S    
C166  C175  S    
C65   C76   A    
C82   C186  A    
C103  H61   S    
C107  H77   S    
C49   C101  A    
C7    C140  A    
Cu9   O15   S    
Cu10  O16   S    
C168  C177  A    
Cu5   O2    S    
C45   C150  S    
C159  H18   S    
C153  O15   A    
C40   O37   A    
C44   O35   A    
C146  C155  A    
C107  H76   S    
C65   C67   A    
C102  H57   S    
C39   C148  S    
C160  C169  A    
C93   C99   A    
Cu9   O6    S    
H49   N1    S    
C161  H20   S    
C81   C89   A    
Cu6   O3    S    
C142  O2    A    
Cu5   O10   S    
C94   C184  S    
C23   N3    S    
C40   O30   A    
Cu12  O43   S    
C179  C196  A    
Cu7   Cu10  S    
C100  H50   S    
C177  C194  A    
C32   C122  A    
C182  O19   A    
C53   C57   A    
C63   H12   S    
C104  H64   S    
C118  C130  A    
C10   C19   A    
C143  C195  A    
C46   C54   A    
C5    H24   S    
C120  C171  S    
C103  H60   S    
C147  C156  A    
C35   H5    S    
C158  H17   S    
C5    C14   A    
Cu8   O22   S    
C7    C16   A    
Cu10  O25   S    
C47   C151  S    
C47   O32   A    
C86   C90   A    
C142  O14   A    
C64   H1    S    
C22   N2    S    
C178  C195  A    
C61   H34   S    
C1    O9    A    
C115  C124  A    
C164  C167  S    
C121  C129  A    
Cu3   O27   S    
C27   C36   A    
C104  N4    S    
C181  O18   A    
C13   C83   A    
C183  O20   A    
Cu1   O1    S    
C156  C165  A    
C60   H45   S    
C40   C149  S    
Cu2   O32   S    
C68   H8    S    
C28   C179  A    
Cu10  O7    S    
Cu2   O42   S    
C111  C190  A    
C62   H23   S    
Cu5   O12   S    
C89   C189  S    
Cu11  O8    S    
Cu6   O11   S    
C104  H65   S    
C164  O16   A    
C68   C80   A    
C100  H52   S    
C131  C170  S    
C114  C193  A    
C105  H69   S    
C36   C125  A    
C112  C133  A    
C38   C127  A    
C35   C81   A    
C95   C98   A    
C92   C98   A    
C5    C138  A    
C83   C92   A    
Cu5   O19   S    
Cu6   O20   S    
C29   N8    S    
C66   C69   A    
C30   C119  A    
C165  C173  A    
C44   O41   A    
C32   H42   S    
C159  C168  A    
C33   H43   S    
C6    C15   A    
C26   C34   A    
C12   H31   S    
Cu4   O38   S    
C17   H36   S    
C46   H6    S    
C113  C136  A    
C13   C86   A    
C114  C135  A    
C52   C68   A    
C39   O36   A    
C45   O42   A    
H53   N2    S    
C9    H28   S    
C27   N6    S    
Cu9   O45   S    
C105  N5    S    
C41   O38   A    
C99   H4    S    
C108  N8    S    
C22   C31   A    
C35   C55   A    
C184  O21   A    
C59   H56   S    
C11   C145  A    
C37   H47   S    
C29   C180  A    
C84   C110  A    
C49   C58   A    
C89   C97   A    
C4    H22   S    
C29   C38   A    
Cu4   O28   S    
Cu1   O48   S    
C85   C94   A    
Cu8   O44   S    
C13   C76   A    
C138  C147  A    
C87   C96   A    
C184  O46   A    
C120  O8    A    
C161  C170  A    
C6    H25   S    
C25   N4    S    
Cu5   Cu8   S    
C171  C180  A    
C106  H72   S    
C169  C178  A    
C115  C129  A    
C48   C56   A    
C58   H67   S    
Cu3   O36   S    
C53   C73   A    
C20   C130  A    
C100  N1    S    
C157  C166  A    
C126  C135  A    
C34   H44   S    
C187  O24   A    
C1    O6    A    
C45   O31   A    
C41   O27   A    
C106  H73   S    
C151  C160  A    
C24   C84   A    
C117  C196  A    
C142  C165  S    
C71   C75   A    
C25   C176  A    
C94   C99   A    
C131  O13   A    
C1    C169  S    
C141  C194  A    
C181  O45   A    
C7    H26   S    
C2    C80   A    
C16   H35   S    
C162  C171  A    
Cu12  O35   S    
C53   C62   A    
C116  C128  A    
C25   C33   A    
C33   C123  A    
Cu4   O29   S    
C155  H14   S    
C70   C72   A    
C16   C135  A    
C122  C130  A    
C167  C176  A    
C47   O43   A    
