data_mof_unit_62311.cif
_audit_creation_date              2012-12-10T17:00:05-0500
_audit_creation_method            fapswitch 2.2
_symmetry_space_group_name_H-M    P1
_symmetry_Int_Tables_number       1
_space_group_crystal_system       triclinic
_cell_length_a                    13.159144
_cell_length_b                    13.107929
_cell_length_c                    16.046875
_cell_angle_alpha                 80.518217
_cell_angle_beta                  100.382698
_cell_angle_gamma                 91.186387
_cell_volume                      2685.27840596

loop_
_atom_site_label
_atom_site_type_symbol
_atom_type_description
_atom_site_fract_x
_atom_site_fract_y
_atom_site_fract_z
_atom_type_partial_charge
C1    C     C_R   0.462514 0.777384 0.469729 0.515779
C2    C     C_2   0.052824 0.525549 0.481497 -0.111810
C3    C     C_2   0.887819 0.556778 0.526749 0.241589
C4    C     C_R   0.534622 0.222360 0.529772 0.532674
C5    C     C_2   0.943321 0.504863 0.484557 -0.118155
C6    C     C_R   0.777327 0.534534 0.523742 0.540572
C7    C     C_R   0.223252 0.465814 0.475254 0.508980
C8    C     C_R   0.515861 0.487763 0.727084 0.512221
C9    C     C_R   0.484209 0.512319 0.273083 0.505668
C10   C     C_1   0.522449 0.482936 0.817775 0.032408
C11   C     C_2   0.534164 0.474277 0.985034 -0.112587
C12   C     C_1   0.472388 0.521383 0.106167 -0.031816
C13   C     C_2   0.466164 0.526107 0.015127 -0.113880
C14   C     C_3   0.349812 0.089320 0.526111 -0.261827
C15   C     C_3   0.262640 0.009385 0.520449 -0.310943
C16   C     C_3   0.159743 0.057334 0.525867 -0.417645
C17   C     C_1   0.527886 0.478930 0.893996 -0.028539
C18   C     C_1   0.477749 0.517287 0.182390 0.028377
C19   C     C_2   0.542346 0.109474 0.534716 0.245311
C20   C     C_2   0.458330 0.046962 0.530268 -0.032926
C21   C     C_2   0.441776 0.888135 0.464450 -0.091055
C22   C     C_2   0.475341 0.935383 0.532382 -0.084974
C23   C     C_2   0.112353 0.451309 0.467645 -0.095757
Cl1   Cl    Cl    0.666749 0.060100 0.535164 -0.552189
Cl2   Cl    Cl    0.943446 0.653906 0.584677 -0.561734
H1    H     H_    0.405229 0.572488 0.971478 0.146247
H2    H     H_    0.098020 0.998471 0.520489 0.186253
H3    H     H_    0.253544 0.980297 0.458412 0.170191
H4    H     H_    0.280899 0.943238 0.573972 0.181339
H5    H     H_    0.349450 0.122596 0.585406 0.185271
H6    H     H_    0.332023 0.152027 0.469670 0.143217
H7    H     H_    0.081382 0.374806 0.461603 0.100583
H8    H     H_    0.595092 0.427888 0.028684 0.145977
H9    H     H_    0.521957 0.893212 0.590148 0.185100
H10   H     H_    0.396601 0.930396 0.406093 0.112435
H11   H     H_    0.907620 0.442904 0.452304 0.134239
H12   H     H_    0.086575 0.598911 0.494626 0.190645
H13   H     H_    0.164484 0.084837 0.588329 0.170113
H14   H     H_    0.138904 0.123418 0.472745 0.157438
O1    O     O_3   0.500000 0.500000 0.500000 -0.452779
O2    O     O_R   0.564890 0.556920 0.685230 -0.529634
O3    O     O_R   0.419250 0.562810 0.301190 -0.533619
O4    O     O_R   0.461010 0.422870 0.688230 -0.530123
O5    O     O_R   0.554850 0.457400 0.325340 -0.535224
O6    O     O_R   0.732880 0.470090 0.478000 -0.563649
O7    O     O_R   0.260330 0.535210 0.424090 -0.529970
O8    O     O_R   0.533020 0.732860 0.528350 -0.522041
O9    O     O_R   0.473780 0.261850 0.569570 -0.574827
O10   O     O_R   0.406490 0.723840 0.419860 -0.535409
O11   O     O_R   0.586720 0.281460 0.482230 -0.494515
O12   O     O_R   0.723810 0.584530 0.562340 -0.480252
O13   O     O_R   0.282980 0.410180 0.535580 -0.536914
Zn1   Zn    Zn3+2 0.592010 0.428480 0.447310 0.973383
Zn2   Zn    Zn3+2 0.579060 0.591980 0.567800 1.002894
Zn3   Zn    Zn3+2 0.430650 0.400450 0.572090 0.941618
Zn4   Zn    Zn3+2 0.398290 0.579090 0.412800 0.954272

loop_
_geom_bond_atom_site_label_1
_geom_bond_atom_site_label_2
_ccdc_geom_bond_type
O9    Zn3   S    
O13   Zn3   S    
C1    C21   S    
C13   H1    S    
C21   H10   S    
C6    O6    A    
C6    O12   A    
O10   Zn4   S    
C19   C20   D    
C8    O4    A    
C3    Cl2   S    
C14   H6    S    
C3    C5    D    
C3    C6    S    
C23   H7    S    
O12   Zn2   S    
C16   H2    S    
C19   Cl1   S    
C15   H3    S    
O6    Zn1   S    
C16   H13   S    
C21   C22   D    
C12   C13   S    
C11   C13   D    
C2    H12   S    
C9    O3    A    
C14   H5    S    
O8    Zn2   S    
C7    C23   S    
O4    Zn3   S    
C20   C22   S    
C7    O13   A    
C15   H4    S    
O1    Zn2   S    
C22   H9    S    
O2    Zn2   S    
C5    H11   S    
O11   Zn1   S    
C16   H14   S    
O7    Zn4   S    
C15   C16   S    
C2    C5    S    
C7    O7    A    
C14   C20   S    
C9    C18   S    
C11   H8    S    
C8    O2    A    
C8    C10   S    
O1    Zn1   S    
C4    O9    A    
C12   C18   T    
C2    C23   D    
C14   C15   S    
C1    O8    A    
C9    O5    A    
C10   C17   T    
O3    Zn4   S    
C4    C19   S    
C1    O10   A    
O5    Zn1   S    
C11   C17   S    
C4    O11   A    
O1    Zn4   S    
O1    Zn3   S    
