data_mof_unit_41522.cif
_audit_creation_date              2012-12-11T16:53:24-0500
_audit_creation_method            fapswitch 2.2
_symmetry_space_group_name_H-M    P1
_symmetry_Int_Tables_number       1
_space_group_crystal_system       triclinic
_cell_length_a                    14.882837
_cell_length_b                    14.700404
_cell_length_c                    17.345601
_cell_angle_alpha                 108.762205
_cell_angle_beta                  106.355197
_cell_angle_gamma                 107.803573
_cell_volume                      3102.5356806

loop_
_atom_site_label
_atom_site_type_symbol
_atom_type_description
_atom_site_fract_x
_atom_site_fract_y
_atom_site_fract_z
_atom_type_partial_charge
C1    C     C_R   0.087324 0.281928 0.070545 -0.045985
C2    C     C_R   0.064160 0.480648 0.251009 0.146612
C3    C     C_R   0.233000 0.800162 0.185143 -0.094303
C4    C     C_R   0.939717 0.481699 0.737484 0.457854
C5    C     C_R   0.743512 0.471650 0.052122 -0.058722
C6    C     C_R   0.253141 0.806139 0.269385 0.028844
C7    C     C_R   0.719982 0.551691 0.039132 0.083341
C8    C     C_R   0.972623 0.429476 0.255151 -0.009634
C9    C     C_R   0.999230 0.815839 0.962935 0.135924
C10   C     C_R   0.508823 0.635020 0.017889 0.099686
C11   C     C_R   0.472631 0.604170 0.075899 -0.019214
C12   C     C_R   0.034430 0.509240 0.731247 -0.068980
C13   C     C_R   0.544098 0.602431 0.147978 -0.106379
C14   C     C_R   0.636791 0.599645 0.145471 0.170127
C15   C     C_R   0.655510 0.598065 0.069666 -0.036329
C16   C     C_R   0.728307 0.209312 0.821890 0.441026
C17   C     C_R   0.597878 0.629794 0.013869 0.050774
C18   C     C_3   0.553302 0.588138 0.913764 -0.544637
C19   C     C_3   0.456132 0.596191 0.918238 0.319712
C20   C     C_R   0.968013 0.420056 0.333541 0.138752
C21   C     C_R   0.048100 0.502190 0.651755 0.143885
C22   C     C_R   0.119073 0.592085 0.574717 -0.162617
C23   C     C_R   0.679454 0.207292 0.741568 -0.049093
C24   C     C_R   0.120308 0.591309 0.654192 -0.110169
C25   C     C_R   0.980505 0.410189 0.571659 -0.185010
C26   C     C_R   0.977470 0.410746 0.491602 0.159822
C27   C     C_R   0.045667 0.503744 0.493774 0.155928
C28   C     C_R   0.299626 0.595519 0.002408 -0.221395
C29   C     C_R   0.038141 0.508425 0.414927 -0.187534
C30   C     C_R   0.899937 0.327208 0.329677 -0.145394
C31   C     C_R   0.904643 0.322553 0.409488 -0.163233
C32   C     C_R   0.592717 0.117186 0.665289 0.110761
C33   C     C_R   0.326618 0.897796 0.351580 0.018406
C34   C     C_R   0.361379 0.565171 0.053185 -0.036207
C35   C     C_R   0.369668 0.064659 0.470793 -0.131338
C36   C     C_R   0.304561 0.984187 0.384625 -0.192964
C37   C     C_R   0.412825 0.890268 0.402413 0.219494
C38   C     C_R   0.464272 0.958174 0.493769 -0.102427
C39   C     C_R   0.448730 0.051564 0.525869 0.105366
C40   C     C_R   0.732298 0.304032 0.744499 -0.171301
C41   C     C_R   0.515276 0.131976 0.611462 -0.210026
C42   C     C_R   0.596281 0.018700 0.639888 -0.200436
C43   C     C_R   0.531181 0.937812 0.554507 0.475815
C44   C     C_R   0.088679 0.106494 0.129077 0.049736
C45   C     C_R   0.220744 0.704040 0.262352 -0.037797
C46   C     C_R   0.998770 0.103719 0.072594 0.044618
C47   C     C_R   0.903694 0.019887 0.052705 -0.163367
C48   C     C_R   0.902341 0.948310 0.091839 -0.185330
C49   C     C_R   0.995292 0.957630 0.151355 0.060809
C50   C     C_R   0.086370 0.037842 0.166519 0.109399
C51   C     C_3   0.200613 0.089151 0.220112 -0.566917
C52   C     C_R   0.298231 0.501150 0.079242 0.492993
C53   C     C_3   0.204462 0.167188 0.178070 0.101224
C54   C     C_R   0.113697 0.560205 0.815924 -0.190339
C55   C     C_R   0.916136 0.198504 0.995252 -0.090654
C56   C     C_R   0.755248 0.570257 0.977733 -0.128639
C57   C     C_R   0.001654 0.186479 0.040329 0.013619
C58   C     C_R   0.890810 0.402085 0.177533 -0.133075
C59   C     C_R   0.083958 0.802814 0.007745 -0.141503
C60   C     C_R   0.913902 0.719136 0.930093 -0.130788
Cl1   Cl    Cl    0.823317 0.461509 0.657366 -0.667395
Cl2   Cl    Cl    0.437408 0.697649 0.889664 -0.632423
Cl3   Cl    Cl    0.666614 0.128641 0.864584 -0.664127
Cl4   Cl    Cl    0.527896 0.810918 0.533200 -0.522346
Cl5   Cl    Cl    0.340595 0.461567 0.162405 -0.631356
H1    H     H_    0.162994 0.306986 0.120615 0.180292
H2    H     H_    0.540292 0.504221 0.878141 0.183408
H3    H     H_    0.386340 0.517854 0.882910 0.084126
H4    H     H_    0.088035 0.581371 0.416763 0.138521
H5    H     H_    0.845285 0.258971 0.265851 0.138176
H6    H     H_    0.172307 0.662829 0.576301 0.156959
H7    H     H_    0.851824 0.251097 0.407230 0.146222
H8    H     H_    0.172871 0.662347 0.716771 0.159407
H9    H     H_    0.926642 0.341099 0.571733 0.148395
H10   H     H_    0.510704 0.207640 0.634506 0.142052
H11   H     H_    0.653539 0.006455 0.684753 0.190311
H12   H     H_    0.750594 0.627911 0.953233 0.114918
H13   H     H_    0.355795 0.134398 0.495576 0.138163
H14   H     H_    0.237395 0.988623 0.344080 0.141619
H15   H     H_    0.830004 0.009862 0.008525 0.159337
H16   H     H_    0.828831 0.886153 0.076484 0.151546
H17   H     H_    0.222416 0.127665 0.293417 0.196420
H18   H     H_    0.236722 0.035460 0.198694 0.211547
H19   H     H_    0.230209 0.250216 0.228098 0.159711
H20   H     H_    0.325696 0.660196 0.985366 0.190266
H21   H     H_    0.704702 0.332383 0.697035 0.202815
H22   H     H_    0.196473 0.598104 0.835304 0.174386
H23   H     H_    0.809782 0.350674 0.155484 0.137655
H24   H     H_    0.836895 0.148349 0.977913 0.172584
H25   H     H_    0.229551 0.682363 0.316766 0.147443
H26   H     H_    0.164369 0.857895 0.032416 0.129934
H27   H     H_    0.836899 0.696694 0.882223 0.130552
H28   H     H_    0.255073 0.865431 0.167937 0.109495
H29   H     H_    0.723482 0.433760 0.092608 0.138162
H30   H     H_    0.526723 0.596996 0.203008 0.232195
H31   H     H_    0.596115 0.644440 0.892399 0.238648
I1    I     I_    0.208850 0.483868 0.319945 -0.325769
I2    I     I_    0.739537 0.593962 0.255165 -0.324145
I3    I     I_    0.478948 0.799101 0.332928 -0.253144
I4    I     I_    0.278412 0.150021 0.088193 -0.291831
N1    N     N_R   0.055640 0.348550 0.045600 -0.053348
N2    N     N_R   0.811290 0.303400 0.871650 -0.089180
N3    N     N_R   0.205180 0.552990 0.997660 -0.068139
N4    N     N_R   0.814810 0.361830 0.823710 -0.068954
N5    N     N_R   0.201660 0.494570 0.045600 -0.087503
N6    N     N_R   0.068420 0.560530 0.871650 -0.060397
N7    N     N_R   0.948050 0.295860 0.997660 -0.054125
N8    N     N_R   0.185190 0.638170 0.176290 -0.040103
N9    N     N_R   0.798340 0.505430 0.954400 -0.046985
N10   N     N_R   0.931580 0.439470 0.128350 -0.058146
N11   N     N_R   0.051950 0.704140 0.002340 -0.049942
N12   N     N_R   0.944360 0.651450 0.954400 -0.048128
N13   N     N_R   0.039170 0.492150 0.176290 -0.068554
N14   N     N_R   0.188710 0.696600 0.128350 -0.048485
N15   N     N_R   0.794820 0.447010 0.002340 -0.047185
N16   N     N_R   0.960830 0.507850 0.823710 -0.080226
Ni1   Ni    Ni4+2 0.119330 0.493420 0.109950 0.286308
Ni2   Ni    Ni4+2 0.880670 0.506580 0.890050 0.251341
Ni3   Ni    Ni4+2 0.872590 0.372590 0.000000 0.258720
Ni4   Ni    Ni4+2 0.127410 0.627410 0.000000 0.227512

loop_
_geom_bond_atom_site_label_1
_geom_bond_atom_site_label_2
_ccdc_geom_bond_type
N1    N7    A    
C6    C45   A    
C1    N1    A    
C27   C29   A    
C18   H31   S    
C56   N9    A    
N3    Ni4   S    
C3    C6    A    
C5    H29   S    
C39   C41   A    
C20   C30   A    
C54   H22   S    
C26   C27   A    
C8    C20   S    
C13   H30   S    
C53   H19   S    
C7    C56   A    
C18   C19   S    
C30   C31   A    
C2    N13   A    
C24   H8    S    
C40   N4    A    
C19   Cl2   S    
C40   H21   S    
C23   C40   A    
C33   C36   A    
C48   H16   S    
C25   H9    S    
N8    N14   A    
C52   Cl5   S    
C8    C58   A    
C44   C53   S    
C35   C36   A    
C2    I1    S    
C43   Cl4   S    
C59   N11   A    
C32   C41   A    
C16   Cl3   S    
C4    C12   A    
C29   H4    S    
C45   N8    A    
C7    C15   S    
C28   C34   A    
C26   C31   A    
C13   C14   A    
C5    N15   A    
N5    Ni1   S    
C47   H15   S    
N7    Ni3   S    
C30   H5    S    
C44   C46   A    
N9    Ni2   S    
C14   I2    S    
N4    Ni2   S    
C20   C29   A    
C60   H27   S    
C53   I4    S    
C54   N6    A    
C3    H28   S    
C5    C7    A    
C50   C51   S    
C25   C26   A    
C4    Cl1   S    
C36   H14   S    
C33   C37   A    
C56   H12   S    
C55   N7    A    
N11   Ni4   S    
C9    C59   A    
C1    H1    S    
C35   C39   A    
C37   C38   A    
C60   N12   A    
C1    C57   A    
C41   H10   S    
C47   C48   A    
N10   N13   A    
C10   C19   S    
C17   C18   S    
C19   H3    S    
N3    N5    A    
C59   H26   S    
N2    N4    A    
C45   H25   S    
C51   H17   S    
N13   Ni1   S    
C16   N2    A    
C48   C49   A    
C52   N5    A    
C16   C23   A    
N15   Ni3   S    
C22   C27   A    
C55   C57   A    
C46   C57   S    
C22   C24   A    
C42   C43   A    
C51   H18   S    
C22   H6    S    
C37   I3    S    
C44   C50   A    
C15   C17   A    
C21   C25   A    
C46   C47   A    
C31   H7    S    
N11   N12   A    
N6    Ni4   S    
C58   N10   A    
C34   C52   A    
N8    Ni1   S    
C4    N16   A    
C11   C34   S    
C2    C8    A    
C3    N14   A    
C58   H23   S    
N10   Ni3   S    
C35   H13   S    
C42   H11   S    
C6    C33   S    
C9    C60   A    
N1    Ni1   S    
C23   C32   S    
C18   H2    S    
C38   C43   A    
C55   H24   S    
N12   Ni2   S    
C11   C13   A    
C28   N3    A    
C38   C39   A    
C12   C21   S    
N16   Ni2   S    
C12   C54   A    
C10   C11   A    
N9    N15   A    
C49   C50   A    
C21   C24   A    
N6    N16   A    
C28   H20   S    
C32   C42   A    
C14   C15   A    
C10   C17   A    
C51   C53   S    
N14   Ni4   S    
N2    Ni3   S    
