data_mof_unit_38020.cif
_audit_creation_date              2012-12-11T15:28:36-0500
_audit_creation_method            fapswitch 2.2
_symmetry_space_group_name_H-M    P1
_symmetry_Int_Tables_number       1
_space_group_crystal_system       triclinic
_cell_length_a                    6.960968
_cell_length_b                    19.596113
_cell_length_c                    23.394543
_cell_angle_alpha                 96.096012
_cell_angle_beta                  91.229679
_cell_angle_gamma                 88.615246
_cell_volume                      3171.65592143

loop_
_atom_site_label
_atom_site_type_symbol
_atom_type_description
_atom_site_fract_x
_atom_site_fract_y
_atom_site_fract_z
_atom_type_partial_charge
O1    O     O_R   0.617180 0.809390 0.808140 -0.521706
O2    O     O_R   0.382820 0.190610 0.191860 -0.521706
O3    O     O_R   0.293300 0.672410 0.795490 -0.535257
O4    O     O_R   0.706700 0.327590 0.204510 -0.535257
O5    O     O_R   0.117220 0.690610 0.691850 -0.521902
O6    O     O_R   0.882780 0.309390 0.308150 -0.521902
C1    C     C_R   0.464996 0.647905 0.805337 0.697051
C2    C     C_R   0.535004 0.352095 0.194663 0.697052
O7    O     O_R   0.287840 0.807750 0.814460 -0.525088
O8    O     O_R   0.712160 0.192250 0.185540 -0.525088
O9    O     O_R   0.111720 0.826910 0.710960 -0.532642
O10   O     O_R   0.888280 0.173090 0.289040 -0.532641
C3    C     C_R   0.456520 0.830744 0.833173 0.716177
C4    C     C_R   0.543480 0.169256 0.166826 0.716176
O11   O     O_R   0.622680 0.673080 0.789040 -0.532797
O12   O     O_R   0.377320 0.326920 0.210960 -0.532797
O13   O     O_3   0.448820 0.756130 0.716020 -0.359225
O14   O     O_3   0.551180 0.243870 0.283980 -0.359225
V1    V     V_3+5 0.176220 0.748860 0.756300 1.416104
V2    V     V_3+5 0.823780 0.251140 0.243700 1.416104
O15   O     O_R   0.781670 0.827580 0.704500 -0.534859
O16   O     O_R   0.218330 0.172420 0.295500 -0.534859
C5    C     C_R   0.947741 0.851807 0.694096 0.695917
C6    C     C_R   0.052259 0.148193 0.305904 0.695917
O17   O     O_R   0.787130 0.692240 0.685530 -0.525551
O18   O     O_R   0.212870 0.307760 0.314470 -0.525551
C7    C     C_R   0.956087 0.669238 0.666795 0.715343
C8    C     C_R   0.043913 0.330762 0.333205 0.715343
V3    V     V_3+5 0.675510 0.751130 0.743690 1.417283
V4    V     V_3+5 0.324490 0.248870 0.256310 1.417283
O19   O     O_3   0.952780 0.743870 0.783980 -0.358377
O20   O     O_3   0.047220 0.256130 0.216020 -0.358377
C9    C     C_1   0.966594 0.617176 0.614738 -0.218939
C10   C     C_1   0.033405 0.382824 0.385261 -0.218939
C11   C     C_1   0.978165 0.573662 0.571922 -0.002615
C12   C     C_1   0.021835 0.426338 0.428078 -0.002615
C13   C     C_1   0.993413 0.521859 0.521316 -0.004182
C14   C     C_1   0.006587 0.478141 0.478684 -0.004182
C15   C     C_R   0.945915 0.913949 0.663433 -0.046379
C16   C     C_R   0.054085 0.086051 0.336567 -0.046379
C17   C     C_R   0.860317 0.034235 0.663104 -0.161798
C18   C     C_R   0.139683 0.965765 0.336896 -0.161798
C19   C     C_R   0.878568 0.975806 0.691913 -0.165721
C20   C     C_R   0.121432 0.024194 0.308087 -0.165721
C21   C     C_R   0.994524 0.910852 0.605068 -0.215140
C22   C     C_R   0.005476 0.089148 0.394932 -0.215140
C23   C     C_R   0.973357 0.969719 0.574114 0.086806
C24   C     C_R   0.026643 0.030281 0.425886 0.086806
C25   C     C_R   0.905381 0.031717 0.604733 0.139246
C26   C     C_R   0.094619 0.968283 0.395267 0.139246
C27   C     C_R   0.014055 0.969256 0.514019 0.057661
C28   C     C_R   0.985945 0.030744 0.485981 0.057661
C29   C     C_R   0.918775 0.090630 0.519017 -0.186813
C30   C     C_R   0.081225 0.909370 0.480982 -0.186813
C31   C     C_R   0.879996 0.090922 0.576987 -0.201156
C32   C     C_R   0.120004 0.909078 0.423013 -0.201156
H1    H     H_    0.827981 0.138263 0.600390 0.123208
H2    H     H_    0.172019 0.861737 0.399610 0.123208
H3    H     H_    0.957196 0.138424 0.414966 0.095421
H4    H     H_    0.042804 0.861576 0.585034 0.095421
H5    H     H_    0.161529 0.021300 0.263378 0.107502
H6    H     H_    0.838471 0.978699 0.736622 0.107502
H7    H     H_    0.807614 0.081507 0.686417 0.113303
H8    H     H_    0.192386 0.918493 0.313583 0.113303
H9    H     H_    0.893731 0.138624 0.501310 0.123873
H10   H     H_    0.106269 0.861376 0.498690 0.123873
C33   C     C_R   0.485514 0.585790 0.835539 -0.045980
C34   C     C_R   0.514486 0.414210 0.164461 -0.045980
C35   C     C_R   0.591819 0.467251 0.833638 -0.162377
C36   C     C_R   0.408181 0.532749 0.166361 -0.162377
C37   C     C_R   0.554448 0.525197 0.805351 -0.166439
C38   C     C_R   0.445552 0.474803 0.194649 -0.166439
C39   C     C_R   0.454750 0.588216 0.894925 -0.215170
C40   C     C_R   0.545250 0.411784 0.105075 -0.215170
C41   C     C_R   0.496446 0.530062 0.925296 0.086570
C42   C     C_R   0.503554 0.469937 0.074704 0.086570
C43   C     C_R   0.565283 0.469240 0.893068 0.139604
C44   C     C_R   0.434717 0.530760 0.106932 0.139604
C45   C     C_R   0.475757 0.530298 0.986309 0.057430
C46   C     C_R   0.524242 0.469702 0.013690 0.057430
C47   C     C_R   0.590932 0.410868 0.979120 -0.186797
C48   C     C_R   0.409068 0.589132 0.020879 -0.186797
C49   C     C_R   0.610331 0.410813 0.920227 -0.201131
C50   C     C_R   0.389669 0.589187 0.079773 -0.201130
H11   H     H_    0.662969 0.364358 0.895622 0.123303
H12   H     H_    0.337031 0.635642 0.104378 0.123303
H13   H     H_    0.595446 0.363338 0.083932 0.095981
H14   H     H_    0.404554 0.636662 0.916068 0.095981
H15   H     H_    0.418976 0.477017 0.240287 0.107523
H16   H     H_    0.581024 0.522982 0.759712 0.107523
H17   H     H_    0.645252 0.420926 0.809060 0.113304
H18   H     H_    0.354748 0.579074 0.190940 0.113304
H19   H     H_    0.630514 0.363551 0.996239 0.123939
H20   H     H_    0.369486 0.636449 0.003760 0.123939
C51   C     C_1   0.467260 0.882811 0.885232 -0.218368
C52   C     C_1   0.532740 0.117189 0.114768 -0.218368
C53   C     C_1   0.478687 0.926329 0.928057 -0.002284
C54   C     C_1   0.521313 0.073671 0.071943 -0.002284
C55   C     C_1   0.493581 0.978138 0.978677 -0.003857
C56   C     C_1   0.506419 0.021862 0.021323 -0.003857

loop_
_geom_bond_atom_site_label_1
_geom_bond_atom_site_label_2
_ccdc_geom_bond_type
C21   H4    S    
C48   H20   S    
C22   H3    S    
C36   C44   A    
O13   V3    S    
C35   C43   A    
O4    C2    A    
V1    O19   S    
C23   C25   A    
C7    C9    S    
C16   C22   A    
O9    V1    S    
C30   H10   S    
C40   C42   A    
C3    C51   S    
C11   C13   S    
C42   C44   A    
O3    C1    A    
C9    C11   T    
C43   C49   A    
C34   C40   A    
C21   C23   A    
C4    C52   S    
C35   C37   A    
O7    C3    A    
C6    C16   S    
O5    C7    A    
O7    V1    S    
O6    C8    A    
O8    V2    S    
C52   C54   T    
O3    V1    S    
C33   C39   A    
C40   H13   S    
C29   H9    S    
O14   V2    S    
C15   C21   A    
C24   C26   A    
C8    C10   S    
C2    O12   A    
C17   C19   A    
C18   C20   A    
C17   C25   A    
C53   C55   S    
O11   V3    S    
C22   C24   A    
C29   C31   A    
O17   V3    S    
C30   C32   A    
C27   C28   A    
O8    C4    A    
C15   C19   A    
C1    O11   A    
C25   C31   A    
O15   V3    S    
C26   C32   A    
C39   H14   S    
C13   C14   T    
C47   H19   S    
C55   C56   T    
C16   C20   A    
C34   C38   A    
O10   V2    S    
O1    V3    S    
C41   C43   A    
C18   C26   A    
O14   V4    S    
C49   H11   S    
C2    C34   S    
C54   C56   S    
C31   H1    S    
O16   C6    A    
O1    C3    A    
C39   C41   A    
O12   V4    S    
C12   C14   S    
C18   H8    S    
C28   C29   A    
V2    O20   S    
O16   V4    S    
O18   C8    A    
C36   H18   S    
C42   C46   A    
C50   H12   S    
C46   C47   A    
C47   C49   A    
C45   C48   A    
C23   C27   A    
C51   C53   T    
O18   V4    S    
O5    V1    S    
C20   H5    S    
O17   C7    A    
O6    V2    S    
O10   C6    A    
C48   C50   A    
O2    V4    S    
C27   C30   A    
O15   C5    A    
V3    O19   S    
V4    O20   S    
C38   H15   S    
C37   H16   S    
C5    C15   S    
O9    C5    A    
O13   V1    S    
C10   C12   T    
C32   H2    S    
C33   C37   A    
O2    C4    A    
C1    C33   S    
C45   C46   A    
O4    V2    S    
C44   C50   A    
C24   C28   A    
C17   H7    S    
C36   C38   A    
C35   H17   S    
C41   C45   A    
C19   H6    S    
