data_mof_unit_54268.cif
_audit_creation_date              2012-12-10T19:00:42-0500
_audit_creation_method            fapswitch 2.2
_symmetry_space_group_name_H-M    P1
_symmetry_Int_Tables_number       1
_space_group_crystal_system       triclinic
_cell_length_a                    15.01484
_cell_length_b                    10.809639
_cell_length_c                    9.555345
_cell_angle_alpha                 90.305067
_cell_angle_beta                  90.250645
_cell_angle_gamma                 90.250231
_cell_volume                      1550.82849893

loop_
_atom_site_label
_atom_site_type_symbol
_atom_type_description
_atom_site_fract_x
_atom_site_fract_y
_atom_site_fract_z
_atom_type_partial_charge
C1    C     C_R   0.496492 0.262319 0.499488 0.816883
C2    C     C_R   0.907231 0.576417 0.597191 0.037643
C3    C     C_R   0.952539 0.354229 0.306563 -0.205684
C4    C     C_R   0.045303 0.353393 0.307264 -0.232342
C5    C     C_R   0.092804 0.426425 0.403769 0.142030
C6    C     C_R   0.046855 0.500894 0.501498 0.001492
C7    C     C_R   0.094231 0.576427 0.597847 -0.003995
C8    C     C_R   0.047507 0.652444 0.692903 0.448571
C9    C     C_R   0.954377 0.652464 0.690964 -0.289465
C10   C     C_R   0.185557 0.427900 0.402577 -0.259488
C11   C     C_R   0.232364 0.500974 0.499198 -0.062308
C12   C     C_R   0.328872 0.500048 0.499699 0.794243
C13   C     C_R   0.187289 0.575033 0.595852 -0.228477
C14   C     C_R   0.491500 0.064313 0.624481 0.067655
C15   C     C_R   0.484536 0.129075 0.498936 -0.216708
C16   C     C_R   0.462618 0.062269 0.375330 0.443085
C17   C     C_R   0.467230 0.933140 0.376451 -0.296755
C18   C     C_R   0.487790 0.870401 0.500737 -0.167115
C19   C     C_R   0.492351 0.937227 0.625650 0.130532
C20   C     C_3   0.559733 0.933405 0.741011 -0.464576
C21   C     C_3   0.558845 0.073876 0.739578 -0.420169
C22   C     C_R   0.577968 0.508325 0.074336 0.272919
C23   C     C_R   0.498248 0.737606 0.500276 0.825989
C24   C     C_R   0.423578 0.481394 0.073534 -0.085501
C25   C     C_R   0.423581 0.481258 0.925204 -0.086399
C26   C     C_R   0.578064 0.507797 0.927046 0.272005
C27   C     C_3   0.644595 0.610507 0.922656 -0.521901
C28   C     C_3   0.643809 0.611722 0.081420 -0.498746
C29   C     C_R   0.671183 0.500823 0.500155 0.803804
C30   C     C_R   0.814348 0.575511 0.596497 -0.225110
C31   C     C_R   0.767810 0.501620 0.500066 -0.059101
C32   C     C_R   0.813468 0.429323 0.402264 -0.260182
C33   C     C_R   0.906269 0.427774 0.402720 0.131981
C34   C     C_R   0.953476 0.501306 0.500944 0.053418
Cu1   Cu    Cu3+1 0.500000 0.499980 0.640670 0.937481
Cu2   Cu    Cu3+1 0.500000 0.500020 0.359330 0.948100
H1    H     H_    0.778166 0.634225 0.668539 0.132883
H2    H     H_    0.457405 0.882959 0.279113 0.177944
H3    H     H_    0.531683 0.893914 0.838633 0.199617
H4    H     H_    0.624262 0.893196 0.707140 0.188509
H5    H     H_    0.530435 0.115071 0.836362 0.211615
H6    H     H_    0.622818 0.115461 0.704586 0.193943
H7    H     H_    0.361247 0.467838 0.127327 0.133292
H8    H     H_    0.361241 0.467287 0.870576 0.143433
H9    H     H_    0.709311 0.579338 0.879598 0.196040
H10   H     H_    0.617418 0.696053 0.875234 0.210092
H11   H     H_    0.708180 0.582404 0.128354 0.202446
H12   H     H_    0.776602 0.372949 0.327493 0.144642
H13   H     H_    0.615234 0.697716 0.126801 0.215047
H14   H     H_    0.916978 0.297690 0.230611 0.144580
H15   H     H_    0.079903 0.296893 0.231215 0.145694
H16   H     H_    0.221438 0.371344 0.327759 0.125597
H17   H     H_    0.225337 0.632365 0.667982 0.167761
H18   H     H_    0.918978 0.713001 0.762154 0.157144
N1    N     N_R   0.500570 0.500930 0.147930 -0.182705
N2    N     N_R   0.500570 0.500890 0.852020 -0.185439
O1    O     O_R   0.500000 0.319640 0.618810 -0.578201
O2    O     O_R   0.500010 0.319680 0.381230 -0.539781
O3    O     O_R   0.370250 0.499950 0.618800 -0.596467
O4    O     O_R   0.370260 0.499990 0.381220 -0.598402
O5    O     O_R   0.499990 0.680320 0.618770 -0.577239
O6    O     O_R   0.500000 0.680360 0.381190 -0.584988
O7    O     O_R   0.629740 0.500010 0.618780 -0.583669
O8    O     O_R   0.629750 0.500050 0.381200 -0.584402
O9    O     O_3   0.091927 0.736626 0.777949 -0.610016
C35   C     C_3   0.118667 0.679300 0.904044 0.034329
H19   H     H_    0.185343 0.717093 0.932369 0.167502
H20   H     H_    0.126597 0.576763 0.895420 0.118050
C36   C     C_3   0.053371 0.710971 0.021343 -0.354779
H21   H     H_    0.042367 0.812572 0.024755 0.231770
H22   H     H_    0.988506 0.664409 0.000499 0.209984
C37   C     C_3   0.088900 0.668999 0.163000 -0.881182
H23   H     H_    0.104522 0.568878 0.159005 0.260364
H24   H     H_    0.037989 0.685300 0.244935 0.263532
H25   H     H_    0.150242 0.721468 0.191220 0.254732
O10   O     O_3   0.445498 0.121077 0.249913 -0.595211
C38   C     C_3   0.353978 0.151594 0.242075 0.091246
H26   H     H_    0.348159 0.236483 0.177833 0.160270
H27   H     H_    0.324148 0.174505 0.345932 0.107630
C39   C     C_3   0.301021 0.047650 0.169775 -0.371535
H28   H     H_    0.331035 0.027153 0.066108 0.229799
H29   H     H_    0.303570 0.962507 0.234143 0.213312
C40   C     C_3   0.203709 0.083485 0.149278 -0.924203
H30   H     H_    0.171980 0.101207 0.252211 0.257395
H31   H     H_    0.167382 0.006701 0.096116 0.266800
H32   H     H_    0.198676 0.167692 0.083617 0.247417

loop_
_geom_bond_atom_site_label_1
_geom_bond_atom_site_label_2
_ccdc_geom_bond_type
C8    C9    A    
C35   H20   S    
C29   O7    A    
C28   H11   S    
C39   H28   S    
C19   C20   S    
C25   N2    A    
C10   H16   S    
C7    C8    A    
C38   H26   S    
C24   N1    A    
C26   C27   S    
C14   C21   S    
Cu2   O2    S    
C37   H25   S    
C5    C6    A    
C20   H4    S    
C35   C36   S    
C3    C33   A    
C15   C16   A    
Cu1   O3    S    
C18   C19   A    
C36   H22   S    
C12   O3    A    
C23   O6    A    
C40   H30   S    
C16   C17   A    
C1    C15   S    
C27   H9    S    
C35   H19   S    
C29   O8    A    
C8    O9    S    
C22   C28   S    
C32   H12   S    
C39   C40   S    
Cu2   O6    S    
C25   H8    S    
C3    H14   S    
C33   C34   A    
C13   H17   S    
C38   H27   S    
C4    H15   S    
C18   C23   S    
O10   C38   S    
C37   H24   S    
C20   H3    S    
C4    C5    A    
C6    C34   A    
C30   H1    S    
Cu1   Cu2   S    
C36   C37   S    
C1    O1    A    
C28   H13   S    
C31   C32   A    
C23   O5    A    
C17   C18   A    
Cu1   O5    S    
C24   C25   A    
C22   N1    A    
C21   H5    S    
C27   H10   S    
C39   H29   S    
C40   H31   S    
C3    C4    A    
C38   C39   S    
Cu1   N2    S    
C16   O10   S    
C14   C19   A    
C37   H23   S    
Cu2   O4    S    
C26   N2    A    
C11   C12   S    
C6    C7    A    
C2    C30   A    
Cu1   O1    S    
C32   C33   A    
C5    C10   A    
C29   C31   S    
Cu2   N1    S    
C1    O2    A    
C11   C13   A    
C2    C34   A    
C30   C31   A    
C17   H2    S    
C36   H21   S    
C10   C11   A    
C21   H6    S    
C12   O4    A    
C7    C13   A    
C40   H32   S    
C20   C21   S    
O9    C35   S    
C22   C26   A    
C27   C28   S    
C24   H7    S    
C14   C15   A    
Cu1   O7    S    
C9    H18   S    
Cu2   O8    S    
C2    C9    A    
