data_mof_unit_30685.cif
_audit_creation_date              2012-12-11T14:38:06-0500
_audit_creation_method            fapswitch 2.2
_symmetry_space_group_name_H-M    P1
_symmetry_Int_Tables_number       1
_space_group_crystal_system       triclinic
_cell_length_a                    19.406724
_cell_length_b                    11.134306
_cell_length_c                    19.603503
_cell_angle_alpha                 90.050895
_cell_angle_beta                  96.995813
_cell_angle_gamma                 90.2534
_cell_volume                      4204.3510862

loop_
_atom_site_label
_atom_site_type_symbol
_atom_type_description
_atom_site_fract_x
_atom_site_fract_y
_atom_site_fract_z
_atom_type_partial_charge
C1    C     C_R   0.727022 0.950048 0.358773 0.546407
C2    C     C_R   0.274132 0.953632 0.640002 0.540280
C3    C     C_R   0.226603 0.450792 0.359446 0.549030
C4    C     C_R   0.772974 0.450120 0.641221 0.534258
C5    C     C_3   0.678359 0.451661 0.457026 -0.220224
C6    C     C_3   0.313956 0.474767 0.545260 -0.233566
C7    C     C_3   0.178951 0.956638 0.456103 -0.223559
C8    C     C_3   0.821561 0.952615 0.543072 -0.220189
C9    C     C_3   0.818358 0.448442 0.533217 -0.173788
C10   C     C_3   0.176606 0.462989 0.465581 -0.169475
C11   C     C_3   0.317792 0.964787 0.530624 -0.183367
C12   C     C_3   0.681545 0.947275 0.466798 -0.175126
C13   C     C_3   0.746954 0.277045 0.563323 -0.246380
C14   C     C_3   0.247675 0.286190 0.445191 -0.262139
C15   C     C_3   0.253755 0.785439 0.561559 -0.251620
C16   C     C_3   0.753000 0.777226 0.436379 -0.245638
C17   C     C_3   0.754514 0.412796 0.570097 0.039739
C18   C     C_3   0.241885 0.420949 0.432190 0.038890
C19   C     C_3   0.256407 0.920746 0.568520 0.039075
C20   C     C_3   0.745430 0.912853 0.429870 0.036877
C21   C     C_3   0.733923 0.359411 0.440078 0.077180
C22   C     C_3   0.257016 0.386941 0.564013 0.092745
C23   C     C_3   0.235299 0.865777 0.439110 0.080881
C24   C     C_3   0.765980 0.859480 0.559832 0.078848
C25   C     C_3   0.807694 0.415984 0.457783 -0.006077
C26   C     C_3   0.183574 0.436992 0.542169 -0.027806
C27   C     C_3   0.308602 0.924771 0.455909 -0.006766
C28   C     C_3   0.692210 0.914971 0.542197 -0.004609
C29   C     C_3   0.724562 0.249350 0.486794 -0.272089
C30   C     C_3   0.267640 0.269741 0.523258 -0.252729
C31   C     C_3   0.227478 0.756801 0.486501 -0.275272
C32   C     C_3   0.775277 0.749673 0.512879 -0.272624
C33   C     C_3   0.422558 0.275618 0.973752 -0.239666
C34   C     C_3   0.445113 0.272771 0.051563 -0.233327
C35   C     C_3   0.922492 0.775459 0.973770 -0.239730
C36   C     C_3   0.945000 0.772534 0.051590 -0.233318
C37   C     C_3   0.440535 0.052585 0.969080 -0.232175
C38   C     C_3   0.562476 0.195594 0.028005 -0.230569
C39   C     C_3   0.940686 0.552489 0.969056 -0.232172
C40   C     C_3   0.062469 0.695902 0.028010 -0.230496
C41   C     C_3   0.539188 0.192668 0.950843 -0.220582
C42   C     C_3   0.466489 0.050325 0.046996 -0.237782
C43   C     C_3   0.039198 0.692880 0.950848 -0.220661
C44   C     C_3   0.966685 0.550207 0.046959 -0.237723
C45   C     C_R   0.536151 0.180285 0.338565 0.532906
C46   C     C_R   0.463880 0.180451 0.661459 0.542981
C47   C     C_R   0.035750 0.680286 0.338280 0.532076
C48   C     C_R   0.963306 0.680550 0.661089 0.538278
C49   C     C_3   0.459545 0.174998 0.937394 0.044936
C50   C     C_3   0.500210 0.173093 0.069164 0.055840
C51   C     C_3   0.959574 0.674987 0.937394 0.044621
C52   C     C_3   0.000234 0.673082 0.069160 0.055910
C53   C     C_1   0.756733 0.411832 0.900159 -0.016344
C54   C     C_1   0.219102 0.474507 0.085266 -0.022943
C55   C     C_1   0.256728 0.911820 0.900155 -0.016306
C56   C     C_1   0.719114 0.974481 0.085270 -0.022932
C57   C     C_1   0.734625 0.361440 0.026106 -0.051582
C58   C     C_1   0.241307 0.436785 0.958032 -0.048194
C59   C     C_1   0.234618 0.861426 0.026103 -0.051547
C60   C     C_1   0.741318 0.936762 0.958036 -0.048353
C61   C     C_1   0.744566 0.386133 0.957270 -0.047490
C62   C     C_1   0.229682 0.458571 0.026620 -0.050093
C63   C     C_1   0.244559 0.886119 0.957266 -0.047509
C64   C     C_1   0.729696 0.958541 0.026625 -0.050037
C65   C     C_1   0.728386 0.340643 0.085447 -0.023640
C66   C     C_1   0.251117 0.409646 0.900489 -0.017684
C67   C     C_1   0.228381 0.840632 0.085445 -0.023555
C68   C     C_1   0.751122 0.909634 0.900491 -0.018666
C69   C     C_R   0.725546 0.317103 0.367965 0.551617
C70   C     C_R   0.262897 0.355903 0.636686 0.555863
C71   C     C_R   0.226354 0.820163 0.368036 0.552909
C72   C     C_R   0.774381 0.817039 0.631887 0.549797
C73   C     C_R   0.705162 0.996636 0.154358 0.540757
C74   C     C_R   0.277007 0.952191 0.835932 0.535383
C75   C     C_R   0.205158 0.496647 0.154359 0.540948
C76   C     C_R   0.777009 0.452197 0.835934 0.535840
C77   C     C_R   0.528945 0.178849 0.142255 0.525874
C78   C     C_R   0.437782 0.182111 0.862720 0.550471
C79   C     C_R   0.028959 0.678848 0.142249 0.525459
C80   C     C_R   0.937801 0.682108 0.862724 0.551419
C81   C     C_R   0.722333 0.311437 0.155847 0.541212
C82   C     C_R   0.262999 0.361639 0.835079 0.539911
C83   C     C_R   0.222332 0.811434 0.155847 0.541077
C84   C     C_R   0.762999 0.861643 0.835076 0.544987
C85   C     C_1   0.485292 0.173100 0.594367 -0.033163
C86   C     C_1   0.514926 0.172870 0.405732 -0.032396
C87   C     C_1   0.983112 0.673594 0.593360 -0.035370
C88   C     C_1   0.013164 0.673046 0.404859 -0.032358
C89   C     C_1   0.504648 0.169920 0.464984 -0.079735
C90   C     C_1   0.495689 0.170026 0.535152 -0.078973
C91   C     C_1   0.001886 0.670526 0.463810 -0.081609
C92   C     C_1   0.992605 0.670865 0.533891 -0.084688
C93   C     C_3   0.683644 0.466616 0.535712 -0.243221
C94   C     C_3   0.312546 0.476772 0.466546 -0.245991
C95   C     C_3   0.184049 0.969989 0.534960 -0.245410
C96   C     C_3   0.816300 0.967691 0.464406 -0.243390
Cr1   Cr    Cr6+3 0.765780 0.160710 0.267420 1.005218
Cr2   Cr    Cr6+3 0.234220 0.160710 0.732580 1.009932
Cr3   Cr    Cr6+3 0.265780 0.660710 0.267420 1.005864
Cr4   Cr    Cr6+3 0.734220 0.660710 0.732580 1.005444
Cr5   Cr    Cr6+3 0.612200 0.009560 0.248850 1.005755
Cr6   Cr    Cr6+3 0.387800 0.009560 0.751150 1.011643
Cr7   Cr    Cr6+3 0.112200 0.509560 0.248850 1.006331
Cr8   Cr    Cr6+3 0.887800 0.509560 0.751150 1.008238
Cr9   Cr    Cr6+3 0.616030 0.323720 0.248510 1.012076
Cr10  Cr    Cr6+3 0.383970 0.323720 0.751490 1.009692
Cr11  Cr    Cr6+3 0.116030 0.823720 0.248510 1.012964
Cr12  Cr    Cr6+3 0.883970 0.823720 0.751490 1.008683
H1    H     H_    0.671550 0.559009 0.550384 0.126093
H2    H     H_    0.327791 0.565122 0.447660 0.130007
H3    H     H_    0.170287 0.061210 0.549635 0.126985
H4    H     H_    0.828470 0.060273 0.449906 0.125502
H5    H     H_    0.753635 0.173755 0.471370 0.125008
H6    H     H_    0.237929 0.196372 0.541476 0.133416
H7    H     H_    0.254523 0.680357 0.469757 0.126723
H8    H     H_    0.746066 0.673660 0.528072 0.125100
H9    H     H_    0.865595 0.399229 0.555984 0.117094
H10   H     H_    0.129393 0.413213 0.442628 0.121194
H11   H     H_    0.368368 0.928253 0.554729 0.119997
H12   H     H_    0.634372 0.897173 0.443949 0.116631
H13   H     H_    0.848158 0.348445 0.449221 0.143754
H14   H     H_    0.144186 0.367026 0.551043 0.139947
H15   H     H_    0.349518 0.856703 0.449908 0.143244
H16   H     H_    0.651744 0.846806 0.550702 0.143612
H17   H     H_    0.365313 0.263184 0.963686 0.112778
H18   H     H_    0.466166 0.362835 0.067803 0.151661
H19   H     H_    0.865260 0.762916 0.963662 0.112491
H20   H     H_    0.965897 0.862658 0.067907 0.151638
H21   H     H_    0.435021 0.365508 0.953525 0.148779
H22   H     H_    0.399267 0.255756 0.079265 0.126410
H23   H     H_    0.934910 0.865400 0.953589 0.148741
H24   H     H_    0.899158 0.755205 0.079244 0.126126
H25   H     H_    0.383332 0.038930 0.961100 0.122678
H26   H     H_    0.586308 0.284849 0.041670 0.134559
H27   H     H_    0.883496 0.538690 0.961102 0.122801
H28   H     H_    0.086147 0.785263 0.041665 0.134748
H29   H     H_    0.422318 0.031301 0.076662 0.128143
H30   H     H_    0.555383 0.278102 0.927857 0.148772
H31   H     H_    0.922566 0.530913 0.076642 0.128082
H32   H     H_    0.055323 0.778346 0.927847 0.148899
H33   H     H_    0.603272 0.126669 0.040963 0.104582
H34   H     H_    0.464532 0.976754 0.943642 0.149666
H35   H     H_    0.103379 0.627194 0.040981 0.104361
H36   H     H_    0.964732 0.476754 0.943584 0.149697
H37   H     H_    0.640309 0.414882 0.554253 0.121610
H38   H     H_    0.355862 0.419620 0.452905 0.121383
H39   H     H_    0.142220 0.914581 0.553619 0.124065
H40   H     H_    0.859636 0.916664 0.445800 0.122730
H41   H     H_    0.625137 0.419925 0.437371 0.129158
H42   H     H_    0.366608 0.446469 0.568404 0.136064
H43   H     H_    0.125901 0.924373 0.436217 0.129651
H44   H     H_    0.874770 0.921641 0.562684 0.128835
H45   H     H_    0.686192 0.538755 0.432194 0.159407
H46   H     H_    0.304901 0.563557 0.565887 0.147212
H47   H     H_    0.186674 0.044280 0.431746 0.160675
H48   H     H_    0.813737 0.039510 0.568075 0.158606
H49   H     H_    0.324084 0.061566 0.535516 0.128672
H50   H     H_    0.666785 0.041165 0.457696 0.125877
H51   H     H_    0.832997 0.542603 0.542447 0.125826
H52   H     H_    0.163402 0.556247 0.452688 0.122454
H53   H     H_    0.796946 0.232758 0.581489 0.132415
H54   H     H_    0.197399 0.241201 0.428002 0.130160
H55   H     H_    0.306845 0.749815 0.575772 0.127474
H56   H     H_    0.703043 0.732144 0.418022 0.133332
H57   H     H_    0.707388 0.244315 0.595425 0.151232
H58   H     H_    0.287872 0.247287 0.416172 0.157761
H59   H     H_    0.218883 0.747069 0.596802 0.161784
H60   H     H_    0.792633 0.745233 0.404285 0.154039
H61   H     H_    0.668532 0.225310 0.480780 0.119933
H62   H     H_    0.323728 0.247397 0.532740 0.118221
H63   H     H_    0.171379 0.734557 0.483759 0.126817
H64   H     H_    0.831280 0.726382 0.518887 0.120706
O1    O     O_R   0.783100 0.287550 0.345460 -0.533698
O2    O     O_R   0.216900 0.287550 0.654540 -0.541024
O3    O     O_R   0.283100 0.787550 0.345460 -0.534338
O4    O     O_R   0.716900 0.787550 0.654540 -0.538038
O5    O     O_R   0.554710 0.081900 0.170950 -0.519774
O6    O     O_R   0.445290 0.081900 0.829050 -0.503671
O7    O     O_R   0.054710 0.581900 0.170950 -0.519959
O8    O     O_R   0.945290 0.581900 0.829050 -0.502298
O9    O     O_R   0.545650 0.284910 0.163740 -0.527408
O10   O     O_R   0.454350 0.284910 0.836260 -0.520440
O11   O     O_R   0.045650 0.784910 0.163740 -0.527621
O12   O     O_R   0.954350 0.784910 0.836260 -0.519715
O13   O     O_R   0.677950 0.374280 0.185410 -0.477191
O14   O     O_R   0.322050 0.374280 0.814590 -0.509624
O15   O     O_R   0.177950 0.874280 0.185410 -0.476795
O16   O     O_R   0.822050 0.874280 0.814590 -0.506484
O17   O     O_3   0.664670 0.164660 0.254930 -0.306623
O18   O     O_3   0.335330 0.164660 0.745070 -0.272851
O19   O     O_3   0.164670 0.664660 0.254930 -0.305983
O20   O     O_3   0.835330 0.664660 0.745070 -0.285963
O21   O     O_R   0.760020 0.037400 0.337700 -0.518510
O22   O     O_R   0.239980 0.037400 0.662300 -0.513377
O23   O     O_R   0.260020 0.537400 0.337700 -0.517567
O24   O     O_R   0.739980 0.537400 0.662300 -0.522330
O25   O     O_R   0.666600 0.921990 0.332020 -0.519614
O26   O     O_R   0.333400 0.921990 0.667980 -0.525009
O27   O     O_R   0.166600 0.421990 0.332020 -0.518440
O28   O     O_R   0.833400 0.421990 0.667980 -0.524483
O29   O     O_R   0.557260 0.082670 0.312540 -0.497230
O30   O     O_R   0.442740 0.082670 0.687460 -0.493958
O31   O     O_R   0.057260 0.582670 0.312540 -0.498642
O32   O     O_R   0.942740 0.582670 0.687460 -0.493925
O33   O     O_R   0.548410 0.285740 0.316480 -0.517737
O34   O     O_R   0.451590 0.285740 0.683520 -0.510603
O35   O     O_R   0.048410 0.785740 0.316480 -0.517650
O36   O     O_R   0.951590 0.785740 0.683520 -0.515926
O37   O     O_R   0.680500 0.375040 0.327000 -0.490506
O38   O     O_R   0.319500 0.375040 0.673000 -0.506555
O39   O     O_R   0.180500 0.875040 0.327000 -0.488887
O40   O     O_R   0.819500 0.875040 0.673000 -0.499045
O41   O     O_R   0.780350 0.286720 0.192720 -0.500545
O42   O     O_R   0.219650 0.286720 0.807280 -0.504736
O43   O     O_R   0.280350 0.786720 0.192720 -0.500927
O44   O     O_R   0.719650 0.786720 0.807280 -0.502296
O45   O     O_R   0.757470 0.036630 0.196110 -0.500598
O46   O     O_R   0.242530 0.036630 0.803890 -0.494692
O47   O     O_R   0.257470 0.536630 0.196110 -0.499896
O48   O     O_R   0.742530 0.536630 0.803890 -0.494719
O49   O     O_R   0.663840 0.921160 0.179280 -0.493686
O50   O     O_R   0.336160 0.921160 0.820720 -0.516944
O51   O     O_R   0.163840 0.421160 0.179280 -0.492798
O52   O     O_R   0.836160 0.421160 0.820720 -0.516041
H65   H     H_    0.565864 0.118141 0.926860 0.134476
H66   H     H_    0.504898 0.976739 0.057693 0.144054
H67   H     H_    0.065946 0.618420 0.926887 0.134383
H68   H     H_    0.005210 0.476791 0.057602 0.144112
N1    N     N_3   0.318336 0.027403 0.411015 -0.658136
H69   H     H_    0.318790 0.998162 0.360479 0.273163
H70   H     H_    0.367867 0.063288 0.425421 0.223111
N2    N     N_3   0.682118 0.021444 0.583992 -0.661737
H71   H     H_    0.685131 0.998258 0.635830 0.267497
H72   H     H_    0.631346 0.051940 0.570800 0.223160
N3    N     N_3   0.817774 0.522570 0.416067 -0.659983
H73   H     H_    0.814964 0.499173 0.364243 0.272327
H74   H     H_    0.868482 0.554015 0.429393 0.224057
N4    N     N_3   0.169652 0.544420 0.581206 -0.677092
H75   H     H_    0.166070 0.520379 0.632187 0.241669
H76   H     H_    0.120459 0.575924 0.562359 0.233590

loop_
_geom_bond_atom_site_label_1
_geom_bond_atom_site_label_2
_ccdc_geom_bond_type
C94   H38   S    
C39   C51   S    
C58   C62   S    
C8    C24   S    
C35   H23   S    
C9    H9    S    
C14   C18   S    
C1    O21   A    
C35   C36   S    
C8    C96   S    
Cr12  O36   S    
C83   O15   A    
Cr7   O19   S    
C9    C25   S    
C36   H20   S    
C16   H56   S    
C67   C83   S    
C40   H28   S    
C24   C72   S    
Cr3   O43   S    
C48   O36   A    
C82   O14   A    
C11   H49   S    
C80   O8    A    
C13   C29   S    
C8    H44   S    
C10   C18   S    
C75   O47   A    
C72   O40   A    
Cr5   O17   S    
C74   O46   A    
Cr6   O26   S    
Cr2   O2    S    
Cr5   O25   S    
Cr7   O7    S    
Cr11  O39   S    
C9    H51   S    
Cr9   O13   S    
Cr10  O38   S    
Cr3   O23   S    
Cr3   O19   S    
C37   C49   S    
C49   C78   S    
Cr2   O22   S    
C3    C18   S    
C46   O34   A    
C48   O32   A    
C95   H3    S    
Cr1   O21   S    
C37   C42   S    
C12   H50   S    
C51   C80   S    
C30   H62   S    
C21   C25   S    
C59   C67   T    
C82   O42   A    
C55   C74   S    
C13   H57   S    
C27   N1    S    
C40   C43   S    
C81   O41   A    
C79   O11   A    
C78   O6    A    
C6    C94   S    
Cr8   O20   S    
C55   C63   T    
Cr11  O11   S    
Cr4   O4    S    
C3    O27   A    
N3    H73   S    
C56   C64   T    
C93   H37   S    
C73   O49   A    
C23   C27   S    
C14   H58   S    
C52   C79   S    
C28   N2    S    
Cr11  O35   S    
C36   C52   S    
C34   H18   S    
C46   C85   S    
Cr7   O51   S    
C5    C93   S    
C44   C52   S    
C7    H47   S    
Cr1   O17   S    
C20   C96   S    
C46   O30   A    
C75   O51   A    
C12   H12   S    
C87   C92   T    
C42   H29   S    
Cr8   O28   S    
Cr6   O6    S    
C15   H59   S    
Cr4   O20   S    
C69   O1    A    
C14   C30   S    
C31   H7    S    
C22   C70   S    
Cr12  O40   S    
C43   H67   S    
C10   H52   S    
C41   H65   S    
Cr4   O24   S    
C96   H40   S    
N4    H76   S    
Cr7   O31   S    
C34   C50   S    
Cr1   O1    S    
C37   H34   S    
Cr12  O12   S    
C73   O45   A    
C68   C84   S    
Cr9   O17   S    
C95   H39   S    
Cr10  O14   S    
C38   C41   S    
C11   H11   S    
C77   O9    A    
C81   O13   A    
C27   H15   S    
C39   H27   S    
C54   C62   T    
C40   C52   S    
C42   H66   S    
C21   C29   S    
C15   C31   S    
C94   H2    S    
C10   C26   S    
C3    O23   A    
C21   C69   S    
C2    O22   A    
C23   C31   S    
C14   H54   S    
C15   C19   S    
C24   C32   S    
Cr10  O10   S    
N1    H69   S    
C10   H10   S    
C23   C71   S    
C66   C82   S    
C70   O2    A    
C26   N4    S    
C65   C81   S    
C88   C91   T    
C11   C27   S    
C16   C20   S    
C11   C19   S    
C12   C20   S    
C33   H17   S    
C33   C34   S    
C48   C87   S    
C47   O31   A    
C43   H32   S    
Cr7   O27   S    
C32   H8    S    
C57   C61   S    
C44   H68   S    
C34   H22   S    
C41   H30   S    
C6    H46   S    
Cr12  O20   S    
Cr2   O18   S    
C42   C50   S    
C7    H43   S    
C4    C17   S    
C9    C17   S    
C33   H21   S    
Cr3   O47   S    
C44   H31   S    
C71   O39   A    
C25   H13   S    
Cr2   O46   S    
N3    H74   S    
C18   C94   S    
C38   H33   S    
Cr1   O45   S    
C84   O16   A    
C53   C76   S    
C17   C93   S    
Cr10  O18   S    
Cr9   O37   S    
C53   C61   T    
C13   H53   S    
C50   C77   S    
Cr8   O32   S    
C91   C92   S    
C19   C95   S    
Cr6   O50   S    
C58   C66   T    
C12   C28   S    
C30   H6    S    
Cr5   O49   S    
C2    C19   S    
C4    O24   A    
C29   H5    S    
N4    H75   S    
Cr4   O44   S    
C25   N3    S    
C45   O33   A    
C56   C73   S    
C22   C30   S    
N2    H72   S    
C2    O26   A    
Cr12  O16   S    
C1    O25   A    
C24   C28   S    
C80   O12   A    
C57   C65   T    
C1    C20   S    
C86   C89   T    
Cr10  O34   S    
C83   O43   A    
C85   C90   T    
C28   H16   S    
Cr9   O33   S    
C39   C44   S    
C38   C50   S    
C32   H64   S    
C47   O35   A    
C16   C32   S    
C41   C49   S    
C7    C95   S    
C74   O50   A    
C59   C63   S    
C96   H4    S    
C13   C17   S    
C60   C64   S    
C60   C68   T    
Cr9   O9    S    
C47   C88   S    
C35   H19   S    
C36   H24   S    
C45   C86   S    
Cr6   O30   S    
N1    H70   S    
Cr5   O29   S    
C35   C51   S    
C43   C51   S    
Cr8   O8    S    
C7    C23   S    
C31   H63   S    
C16   H60   S    
C5    H45   S    
C5    H41   S    
N2    H71   S    
Cr6   O18   S    
C71   O3    A    
C29   H61   S    
C69   O37   A    
C37   H25   S    
C38   H26   S    
Cr2   O42   S    
C8    H48   S    
C72   O4    A    
C77   O5    A    
Cr3   O3    S    
Cr5   O5    S    
C54   C75   S    
C6    H42   S    
C76   O52   A    
C4    O28   A    
C79   O7    A    
C5    C21   S    
C39   H36   S    
Cr4   O48   S    
C45   O29   A    
C22   C26   S    
C40   H35   S    
Cr11  O19   S    
C76   O48   A    
Cr11  O15   S    
Cr1   O41   S    
C26   H14   S    
C70   O38   A    
C78   O10   A    
C89   C90   S    
C33   C49   S    
Cr8   O52   S    
C15   H55   S    
C84   O44   A    
C93   H1    S    
C6    C22   S    
