data_mof_unit_24311.cif
_audit_creation_date              2012-12-11T16:57:13-0500
_audit_creation_method            fapswitch 2.2
_symmetry_space_group_name_H-M    P1
_symmetry_Int_Tables_number       1
_space_group_crystal_system       triclinic
_cell_length_a                    14.38541
_cell_length_b                    16.350311
_cell_length_c                    6.94083
_cell_angle_alpha                 89.995746
_cell_angle_beta                  98.86011
_cell_angle_gamma                 89.97687
_cell_volume                      1613.04384787

loop_
_atom_site_label
_atom_site_type_symbol
_atom_type_description
_atom_site_fract_x
_atom_site_fract_y
_atom_site_fract_z
_atom_type_partial_charge
O1    O     O_R   0.584990 0.413650 0.534420 -0.531606
O2    O     O_R   0.584990 0.586350 0.534420 -0.528453
O3    O     O_R   0.596190 0.585230 0.208380 -0.536383
O4    O     O_R   0.596190 0.414770 0.208380 -0.539134
O5    O     O_R   0.415010 0.586420 0.976930 -0.552499
O6    O     O_R   0.415010 0.413580 0.976930 -0.554379
C1    C     C_R   0.619743 0.613319 0.384246 0.748245
C2    C     C_R   0.619670 0.386591 0.384200 0.745793
O7    O     O_3   0.440560 0.500000 0.319140 -0.385321
V1    V     V_3+5 0.511030 0.500000 0.068070 1.464505
O8    O     O_R   0.403810 0.414840 0.643540 -0.530703
O9    O     O_R   0.403810 0.585160 0.643540 -0.529841
C3    C     C_R   0.378177 0.388136 0.803977 0.798578
C4    C     C_R   0.377996 0.611706 0.803963 0.807664
V2    V     V_3+5 0.488970 0.500000 0.560620 1.472896
O10   O     O_3   0.559440 0.500000 0.859420 -0.367029
H1    H     H_    0.176106 0.801687 0.812094 0.152638
H2    H     H_    0.175598 0.198753 0.812297 0.152533
H3    H     H_    0.339990 0.711414 0.084379 0.146560
H4    H     H_    0.340123 0.288372 0.084243 0.145915
C5    C     C_2   0.301602 0.675130 0.789214 -0.012176
C6    C     C_2   0.301760 0.324748 0.789140 -0.008871
C7    C     C_2   0.291799 0.720592 0.949608 -0.142004
C8    C     C_2   0.291857 0.279316 0.949546 -0.142483
H5    H     H_    0.240076 0.806953 0.252149 0.135211
H6    H     H_    0.240401 0.192676 0.252085 0.136120
C9    C     C_2   0.199931 0.822532 0.112012 -0.303297
C10   C     C_2   0.199991 0.177378 0.112001 -0.302525
C11   C     C_2   0.217884 0.784575 0.949510 -0.119328
C12   C     C_2   0.217737 0.215538 0.949562 -0.118696
C13   C     C_R   0.679626 0.744100 0.547316 0.086237
C14   C     C_R   0.679454 0.255572 0.546770 0.091036
C15   C     C_R   0.687882 0.682304 0.412605 -0.181766
C16   C     C_R   0.688005 0.317669 0.412786 -0.188491
C17   C     C_R   0.761170 0.690497 0.300194 -0.211361
C18   C     C_R   0.762748 0.310695 0.303771 -0.230020
H7    H     H_    0.769569 0.644620 0.191675 0.157679
H8    H     H_    0.771469 0.356913 0.196197 0.160010
C19   C     C_R   0.828648 0.754215 0.336875 0.367622
C20   C     C_R   0.830478 0.247162 0.341123 0.374537
C21   C     C_R   0.821488 0.814590 0.481976 -0.176533
C22   C     C_R   0.823054 0.186558 0.485417 -0.174797
C23   C     C_R   0.742721 0.809029 0.578625 -0.088029
C24   C     C_R   0.744425 0.192051 0.582901 -0.082719
C25   C     C_3   0.734450 0.811730 0.791054 -0.105542
C26   C     C_3   0.736367 0.193244 0.796541 -0.113969
C27   C     C_3   0.666138 0.739164 0.755100 0.245860
C28   C     C_3   0.662327 0.261037 0.751726 0.251113
H9    H     H_    0.802077 0.796003 0.883325 0.188537
H10   H     H_    0.802250 0.215386 0.885534 0.182705
H11   H     H_    0.695207 0.681799 0.826432 0.083178
H12   H     H_    0.684994 0.320419 0.821635 0.080108
O11   O     O_R   0.921430 0.915960 0.371040 -0.515696
O12   O     O_R   0.921430 0.084040 0.371040 -0.513227
O13   O     O_R   0.910450 0.087500 0.697310 -0.552167
O14   O     O_R   0.910450 0.912500 0.697310 -0.549322
O15   O     O_R   0.091710 0.087460 0.928430 -0.546269
O16   O     O_R   0.091710 0.912540 0.928430 -0.545875
C29   C     C_R   0.890402 0.116258 0.520912 0.751343
C30   C     C_R   0.889808 0.884130 0.520234 0.749201
O17   O     O_3   0.065970 0.000000 0.586140 -0.381661
V3    V     V_3+5 0.995640 0.000000 0.837400 1.465420
O18   O     O_R   0.103020 0.915700 0.261710 -0.534949
O19   O     O_R   0.103020 0.084300 0.261710 -0.534853
C31   C     C_R   0.126588 0.886969 0.100722 0.804170
C32   C     C_R   0.126584 0.113025 0.100711 0.803468
V4    V     V_3+5 0.017940 0.000000 0.344880 1.503474
O20   O     O_3   0.947330 1.000000 0.046180 -0.367575
C33   C     C_3   0.231863 0.689125 0.601222 -0.366339
C34   C     C_3   0.238386 0.633510 0.427285 -0.688447
H13   H     H_    0.304203 0.645146 0.367209 0.232464
H14   H     H_    0.233689 0.568674 0.470009 0.207046
H15   H     H_    0.178625 0.646648 0.309838 0.233305
H16   H     H_    0.159356 0.681514 0.635618 0.203541
H17   H     H_    0.239626 0.753087 0.553158 0.191275
C35   C     C_3   0.232045 0.310784 0.601049 -0.364138
C36   C     C_3   0.238988 0.365974 0.426524 -0.686650
H18   H     H_    0.234312 0.430945 0.468197 0.207094
H19   H     H_    0.304960 0.354002 0.367250 0.232648
H20   H     H_    0.179390 0.352712 0.308824 0.233298
H21   H     H_    0.239515 0.246684 0.553530 0.192028
H22   H     H_    0.159531 0.318838 0.635156 0.203121
Cl1   Cl    Cl    0.926821 0.750045 0.213490 -0.710803
Cl2   Cl    Cl    0.929114 0.251469 0.219173 -0.709447
C37   C     C_3   0.692972 0.893168 0.846141 -0.254106
C38   C     C_3   0.682163 0.895388 0.061352 -0.676912
H23   H     H_    0.652728 0.837222 0.108039 0.264889
H24   H     H_    0.751526 0.906756 0.150976 0.214038
H25   H     H_    0.633762 0.945342 0.087644 0.209866
H26   H     H_    0.742271 0.941671 0.817346 0.156262
H27   H     H_    0.624414 0.906326 0.753690 0.225818
C39   C     C_3   0.702983 0.111375 0.869033 -0.256445
C40   C     C_3   0.672328 0.117630 0.070497 -0.636397
H28   H     H_    0.726166 0.089543 0.182684 0.189398
H29   H     H_    0.660972 0.181794 0.112468 0.255155
H30   H     H_    0.604902 0.084731 0.070382 0.223150
H31   H     H_    0.644940 0.085408 0.762092 0.209066
H32   H     H_    0.763670 0.069240 0.880535 0.174626
Cl3   Cl    Cl    0.545606 0.756723 0.779205 -0.682298
Cl4   Cl    Cl    0.542377 0.235314 0.764470 -0.678913

loop_
_geom_bond_atom_site_label_1
_geom_bond_atom_site_label_2
_ccdc_geom_bond_type
O16   V3    S    
O18   C31   A    
C40   H28   S    
O13   C29   A    
C9    C11   D    
O1    C2    A    
H1    C11   S    
C20   Cl2   S    
C10   C32   S    
O2    C1    A    
C6    C35   S    
O15   C32   A    
O4    C2    A    
C37   H27   S    
C39   H32   S    
O15   V3    S    
C19   C21   A    
C36   H18   S    
C13   C23   A    
C7    C11   S    
C4    C5    S    
C17   H7    S    
O3    C1    A    
C17   C19   A    
C38   H24   S    
C26   C39   S    
V2    O10   S    
O13   V3    S    
C27   Cl3   S    
C25   C27   S    
O8    V2    S    
H4    C8    S    
C13   C15   A    
C34   H13   S    
H2    C12   S    
O7    V1    S    
C21   C23   A    
C16   C18   A    
C20   C22   A    
C40   H29   S    
C13   C27   S    
C14   C28   S    
C33   C34   S    
C22   C24   A    
O11   C30   A    
C24   C26   S    
C39   H31   S    
C26   C28   S    
O12   C29   A    
C36   H19   S    
C28   Cl4   S    
O18   V4    S    
C1    C15   S    
V4    O20   S    
O19   V4    S    
C18   C20   A    
C35   C36   S    
C35   H22   S    
H3    C7    S    
C27   H11   S    
O12   V4    S    
C37   C38   S    
O14   C30   A    
C5    C33   S    
C14   C16   A    
C22   C29   S    
C25   C37   S    
C9    C31   S    
O17   V4    S    
O16   C31   A    
O9    V2    S    
C25   H9    S    
C34   H15   S    
C14   C24   A    
C33   H16   S    
C2    C16   S    
O2    V2    S    
C23   C25   S    
O5    C4    A    
O1    V2    S    
O9    C4    A    
C40   H30   S    
C5    C7    D    
O14   V3    S    
O4    V1    S    
C36   H20   S    
C38   H23   S    
C21   C30   S    
C38   H25   S    
C35   H21   S    
O6    V1    S    
C37   H26   S    
H5    C9    S    
C26   H10   S    
H6    C10   S    
V3    O20   S    
C10   C12   D    
O7    V2    S    
C19   Cl1   S    
O5    V1    S    
O3    V1    S    
V1    O10   S    
O6    C3    A    
O8    C3    A    
C18   H8    S    
C39   C40   S    
C15   C17   A    
C3    C6    S    
C33   H17   S    
C6    C8    D    
O17   V3    S    
O11   V4    S    
C8    C12   S    
C28   H12   S    
C34   H14   S    
O19   C32   A    
