data_mof_unit_42715.cif
_audit_creation_date              2012-12-10T18:43:11-0500
_audit_creation_method            fapswitch 2.2
_symmetry_space_group_name_H-M    P1
_symmetry_Int_Tables_number       1
_space_group_crystal_system       triclinic
_cell_length_a                    10.649142
_cell_length_b                    9.857053
_cell_length_c                    10.650227
_cell_angle_alpha                 88.424596
_cell_angle_beta                  90.032428
_cell_angle_gamma                 89.863601
_cell_volume                      1117.51938839

loop_
_atom_site_label
_atom_site_type_symbol
_atom_type_description
_atom_site_fract_x
_atom_site_fract_y
_atom_site_fract_z
_atom_type_partial_charge
C1    C     C_R   0.260191 0.500492 0.494977 0.908345
C2    C     C_R   0.936232 0.412653 0.570047 -0.216886
C3    C     C_R   0.871960 0.499748 0.487469 -0.096790
C4    C     C_R   0.127700 0.501394 0.487838 -0.102847
C5    C     C_R   0.933750 0.585188 0.399618 0.144112
C6    C     C_R   0.064436 0.587867 0.401093 0.099134
C7    C     C_R   0.552003 0.068906 0.597277 -0.082633
C8    C     C_R   0.450341 0.074706 0.401680 -0.076736
C9    C     C_R   0.551562 0.925186 0.597541 -0.051105
C10   C     C_R   0.450302 0.931152 0.401640 -0.027134
C11   C     C_3   0.353452 0.199042 0.868539 0.150223
C12   C     C_R   0.739706 0.499980 0.495437 0.897942
C13   C     C_3   0.277139 0.128052 0.769120 -0.823082
C14   C     C_3   0.225469 0.333787 0.156360 0.105201
C15   C     C_3   0.160923 0.216825 0.226357 -0.804491
C16   C     C_R   0.490422 0.502048 0.262666 1.009890
C17   C     C_R   0.497837 0.497703 0.737830 1.012195
C18   C     C_2   0.411203 0.410245 0.932431 0.407587
C19   C     C_2   0.408612 0.408879 0.070682 0.394865
C20   C     C_2   0.494638 0.490328 0.870915 -0.487711
C21   C     C_2   0.464641 0.509923 0.131394 -0.479525
C22   C     C_R   0.064442 0.412976 0.569739 -0.195796
H1    H     H_    0.566679 0.548571 0.916570 0.117330
H2    H     H_    0.454971 0.182216 0.848752 0.132443
H3    H     H_    0.296936 0.173808 0.674894 0.277303
H4    H     H_    0.302238 0.018637 0.768907 0.214342
H5    H     H_    0.175296 0.138082 0.789395 0.249511
H6    H     H_    0.175308 0.351992 0.065621 0.184759
H7    H     H_    0.216825 0.425162 0.214438 0.158275
H8    H     H_    0.199600 0.204862 0.322803 0.256177
H9    H     H_    0.058782 0.238197 0.233615 0.228541
H10   H     H_    0.174553 0.121055 0.175445 0.264525
H11   H     H_    0.487048 0.606194 0.085154 0.143664
H12   H     H_    0.114456 0.347018 0.635836 0.183982
H13   H     H_    0.886959 0.346602 0.636471 0.160730
H14   H     H_    0.594203 0.120757 0.674795 0.124673
H15   H     H_    0.411795 0.130849 0.322342 0.191676
H16   H     H_    0.593083 0.868717 0.675590 0.135495
H17   H     H_    0.411314 0.879568 0.322419 0.159381
H18   H     H_    0.330035 0.150642 0.960814 0.187052
I1    I     I_    0.830269 0.700498 0.259923 -0.323492
I2    I     I_    0.163930 0.717400 0.269933 -0.400206
N1    N     N_R   0.500000 0.857200 0.500000 -0.078701
N2    N     N_R   0.500000 0.142810 0.500000 -0.090534
O1    O     O_R   0.316770 0.614620 0.499990 -0.592774
O2    O     O_3   0.353107 0.301356 0.136316 -0.627320
O3    O     O_R   0.683230 0.614620 0.500010 -0.595473
O4    O     O_R   0.316800 0.385290 0.500000 -0.634026
O5    O     O_R   0.683200 0.385290 0.500000 -0.622417
O6    O     O_R   0.500000 0.614630 0.319080 -0.612766
O7    O     O_R   0.500000 0.614630 0.680920 -0.629819
O8    O     O_R   0.500030 0.385300 0.319080 -0.575993
O9    O     O_R   0.499970 0.385300 0.680920 -0.607826
O10   O     O_3   0.321840 0.338521 0.866176 -0.613626
Zn1   Zn    Zn3+2 0.500000 0.653120 0.500000 0.986003
Zn2   Zn    Zn3+2 0.500000 0.346880 0.500000 0.964355

loop_
_geom_bond_atom_site_label_1
_geom_bond_atom_site_label_2
_ccdc_geom_bond_type
C2    H13   S    
C2    C22   A    
C1    O4    A    
C15   H9    S    
C16   C21   S    
O5    Zn2   S    
C4    C22   A    
C7    H14   S    
N2    Zn2   S    
O7    Zn1   S    
O6    Zn1   S    
C20   H1    S    
C1    C4    S    
C13   H3    S    
C7    C9    A    
C17   O7    A    
C2    C3    A    
C19   O2    S    
C15   H10   S    
C14   O2    S    
C7    N2    A    
C11   C13   S    
C1    O1    A    
C11   H18   S    
C11   O10   S    
O8    Zn2   S    
C12   O3    A    
C4    C6    A    
C9    H16   S    
C19   C21   D    
C16   O6    A    
C12   O5    A    
C18   C20   D    
C5    C6    A    
C22   H12   S    
C13   H4    S    
C9    N1    A    
C21   H11   S    
C8    H15   S    
C18   O10   S    
C14   H7    S    
C17   O9    A    
C11   H2    S    
C17   C20   S    
O1    Zn1   S    
C15   H8    S    
C8    C10   A    
C18   C19   S    
C6    I2    S    
O9    Zn2   S    
N1    Zn1   S    
C16   O8    A    
O4    Zn2   S    
O3    Zn1   S    
C5    I1    S    
C14   C15   S    
C13   H5    S    
C3    C12   S    
C14   H6    S    
C10   N1    A    
C8    N2    A    
C10   H17   S    
C3    C5    A    
