data_mof_unit_31983.cif
_audit_creation_date              2012-12-11T14:40:12-0500
_audit_creation_method            fapswitch 2.2
_symmetry_space_group_name_H-M    P1
_symmetry_Int_Tables_number       1
_space_group_crystal_system       triclinic
_cell_length_a                    19.541042
_cell_length_b                    10.896425
_cell_length_c                    19.445475
_cell_angle_alpha                 90.142081
_cell_angle_beta                  97.804686
_cell_angle_gamma                 90.006069
_cell_volume                      4102.10900898

loop_
_atom_site_label
_atom_site_type_symbol
_atom_type_description
_atom_site_fract_x
_atom_site_fract_y
_atom_site_fract_z
_atom_type_partial_charge
C1    C     C_R   0.725309 0.953281 0.361062 0.580572
C2    C     C_R   0.272375 0.945711 0.641976 0.569192
C3    C     C_R   0.226248 0.449846 0.360160 0.571850
C4    C     C_R   0.772738 0.446052 0.641669 0.566662
C5    C     C_3   0.727973 0.283278 0.486318 -0.151916
C6    C     C_3   0.326071 0.346855 0.511676 -0.131486
C7    C     C_3   0.212094 0.759571 0.499163 -0.180301
C8    C     C_3   0.823350 0.848218 0.511223 -0.134340
C9    C     C_3   0.744549 0.385408 0.436226 0.049438
C10   C     C_3   0.269462 0.337089 0.559325 0.018305
C11   C     C_3   0.232572 0.842050 0.441236 0.024572
C12   C     C_3   0.767455 0.846005 0.559940 0.023380
C13   C     C_3   0.704856 0.479845 0.473032 -0.116529
C14   C     C_3   0.239270 0.461216 0.535099 -0.101208
C15   C     C_3   0.201191 0.955069 0.471757 -0.107163
C16   C     C_3   0.741988 0.973857 0.536558 -0.092532
C17   C     C_3   0.773649 0.509335 0.519417 -0.124860
C18   C     C_3   0.190701 0.394959 0.478382 -0.133916
C19   C     C_3   0.272574 0.980523 0.514172 -0.121437
C20   C     C_3   0.689917 0.912819 0.480524 -0.140581
C21   C     C_3   0.812812 0.414223 0.481496 -0.085506
C22   C     C_3   0.220627 0.269648 0.502963 -0.137510
C23   C     C_3   0.303877 0.867662 0.482998 -0.073478
C24   C     C_3   0.715112 0.784272 0.504207 -0.138015
C25   C     C_3   0.796104 0.315407 0.532528 0.057694
C26   C     C_3   0.276453 0.281759 0.454128 0.044897
C27   C     C_3   0.283289 0.787678 0.541499 0.050275
C28   C     C_3   0.770531 0.788555 0.454603 0.044671
C29   C     C_3   0.756873 0.409781 0.570128 0.029965
C30   C     C_3   0.246592 0.405470 0.430118 0.026470
C31   C     C_3   0.252104 0.899853 0.572363 0.029140
C32   C     C_3   0.745062 0.914622 0.431408 0.025538
C33   C     C_3   0.504653 0.270179 0.977488 -0.091468
C34   C     C_3   0.455150 0.275640 0.032629 -0.109316
C35   C     C_3   0.023599 0.772133 0.969093 -0.096706
C36   C     C_3   0.981013 0.776201 0.029861 -0.096945
C37   C     C_3   0.545211 0.164633 0.016303 -0.109182
C38   C     C_3   0.407319 0.179448 0.992106 -0.154886
C39   C     C_3   0.069698 0.669217 0.004333 -0.148587
C40   C     C_3   0.931315 0.677241 0.995558 -0.149951
C41   C     C_3   0.495645 0.170376 0.071038 0.052206
C42   C     C_3   0.457201 0.174374 0.937720 0.041035
C43   C     C_3   0.027072 0.673600 0.064504 0.053788
C44   C     C_3   0.973886 0.673591 0.935360 0.056575
C45   C     C_R   0.564956 0.183773 0.348449 0.550243
C46   C     C_R   0.466095 0.179873 0.662839 0.543347
C47   C     C_R   0.064067 0.683633 0.348437 0.536312
C48   C     C_R   0.966007 0.679861 0.662838 0.543742
C49   C     C_3   0.448396 0.073771 0.032086 -0.122944
C50   C     C_3   0.497571 0.068506 0.976026 -0.101835
C51   C     C_3   0.977629 0.574331 0.031271 -0.104958
C52   C     C_3   0.019687 0.570267 0.969399 -0.103951
C53   C     C_1   0.782450 0.476680 0.915089 -0.014880
C54   C     C_1   0.223616 0.458657 0.088263 -0.005123
C55   C     C_1   0.281227 0.973610 0.914567 -0.011931
C56   C     C_1   0.726252 0.951339 0.089427 0.000343
C57   C     C_1   0.758745 0.439859 0.042348 -0.035845
C58   C     C_1   0.253509 0.398786 0.966651 -0.039607
C59   C     C_1   0.257625 0.937103 0.041716 -0.043805
C60   C     C_1   0.756898 0.888154 0.968539 -0.037041
C61   C     C_1   0.771466 0.461355 0.973860 -0.042947
C62   C     C_1   0.237952 0.431686 0.032263 -0.042606
C63   C     C_1   0.269996 0.957774 0.973154 -0.046122
C64   C     C_1   0.741286 0.921889 0.034049 -0.037229
C65   C     C_1   0.748243 0.412275 0.099856 0.002211
C66   C     C_1   0.264927 0.366281 0.910497 -0.002061
C67   C     C_1   0.247656 0.910716 0.099488 -0.004045
C68   C     C_1   0.767611 0.857372 0.911840 -0.005121
C69   C     C_R   0.738945 0.360760 0.362983 0.557520
C70   C     C_R   0.276112 0.306706 0.632819 0.567149
C71   C     C_R   0.224747 0.809570 0.367748 0.542761
C72   C     C_R   0.775344 0.809704 0.632311 0.560010
C73   C     C_R   0.707581 0.989541 0.154262 0.549589
C74   C     C_R   0.295080 0.996888 0.845526 0.521586
C75   C     C_R   0.206376 0.492722 0.154310 0.535656
C76   C     C_R   0.795521 0.498003 0.845480 0.522653
C77   C     C_R   0.527347 0.178495 0.142508 0.553124
C78   C     C_R   0.436552 0.182666 0.863085 0.521886
C79   C     C_R   0.058348 0.681868 0.135642 0.539950
C80   C     C_R   0.942139 0.681979 0.864444 0.514936
C81   C     C_R   0.736657 0.362845 0.165335 0.541452
C82   C     C_R   0.275396 0.320181 0.844386 0.515091
C83   C     C_R   0.236589 0.862670 0.165313 0.542940
C84   C     C_R   0.776548 0.816096 0.844297 0.517440
C85   C     C_1   0.496402 0.171645 0.599942 -0.005051
C86   C     C_1   0.547358 0.176230 0.417473 0.012790
C87   C     C_1   0.995486 0.671560 0.599595 -0.004121
C88   C     C_1   0.045266 0.675876 0.416867 0.009295
C89   C     C_1   0.533554 0.171611 0.475909 -0.019826
C90   C     C_1   0.515712 0.169491 0.543729 -0.031613
C91   C     C_1   0.031223 0.671191 0.475150 -0.021144
C92   C     C_1   0.014003 0.669213 0.543095 -0.033399
C93   C     C_3   0.688567 0.379850 0.524804 -0.156036
C94   C     C_3   0.295256 0.472372 0.486264 -0.129184
C95   C     C_3   0.180916 0.874273 0.531150 -0.147772
C96   C     C_3   0.797202 0.976796 0.486411 -0.121845
Cr1   Cr    Cr6+3 0.765830 0.160660 0.268180 1.045436
Cr2   Cr    Cr6+3 0.234170 0.160660 0.731820 1.028707
Cr3   Cr    Cr6+3 0.265830 0.660660 0.268180 1.031383
Cr4   Cr    Cr6+3 0.734170 0.660660 0.731820 1.029649
Cr5   Cr    Cr6+3 0.612110 0.009150 0.248770 1.050872
Cr6   Cr    Cr6+3 0.387890 0.009150 0.751230 1.053623
Cr7   Cr    Cr6+3 0.112110 0.509150 0.248770 1.045440
Cr8   Cr    Cr6+3 0.887890 0.509150 0.751230 1.052683
Cr9   Cr    Cr6+3 0.615930 0.324050 0.248450 1.041758
Cr10  Cr    Cr6+3 0.384070 0.324050 0.751550 1.055681
Cr11  Cr    Cr6+3 0.115930 0.824050 0.248450 1.040353
Cr12  Cr    Cr6+3 0.884070 0.824050 0.751550 1.057233
H1    H     H_    0.708123 0.191674 0.468630 0.092937
H2    H     H_    0.381593 0.326222 0.527233 0.141765
H3    H     H_    0.184849 0.671522 0.487822 0.085778
H4    H     H_    0.878015 0.820673 0.525975 0.139833
H5    H     H_    0.638544 0.365106 0.544566 0.131036
H6    H     H_    0.325180 0.554074 0.474351 0.168211
H7    H     H_    0.131321 0.877518 0.552949 0.134291
H8    H     H_    0.830326 0.053786 0.473917 0.166001
H9    H     H_    0.667009 0.543958 0.444736 0.157759
H10   H     H_    0.221332 0.529109 0.571163 0.172610
H11   H     H_    0.166993 0.021560 0.440605 0.164489
H12   H     H_    0.728260 0.047332 0.571800 0.170504
H13   H     H_    0.300802 0.067778 0.525537 0.120092
H14   H     H_    0.635134 0.940628 0.466516 0.136503
H15   H     H_    0.797342 0.597167 0.538398 0.109279
H16   H     H_    0.134995 0.416121 0.464031 0.142213
H17   H     H_    0.863116 0.429339 0.462294 0.185954
H18   H     H_    0.188266 0.190394 0.513415 0.127322
H19   H     H_    0.354335 0.866186 0.462728 0.183340
H20   H     H_    0.679642 0.710177 0.515590 0.132297
H21   H     H_    0.602376 0.158327 0.027688 0.108186
H22   H     H_    0.350336 0.185734 0.980993 0.097363
H23   H     H_    0.126988 0.666091 0.010001 0.105395
H24   H     H_    0.874077 0.680721 0.990151 0.097797
H25   H     H_    0.528281 0.350713 0.954906 0.146330
H26   H     H_    0.437553 0.359974 0.057167 0.138022
H27   H     H_    0.042536 0.853473 0.942994 0.147851
H28   H     H_    0.964931 0.861063 0.055048 0.148031
H29   H     H_    0.425663 0.994093 0.056319 0.131410
H30   H     H_    0.515033 0.984031 0.951542 0.140279
H31   H     H_    0.959528 0.493715 0.058600 0.139382
H32   H     H_    0.034750 0.486298 0.942707 0.140559
O1    O     O_R   0.783230 0.287800 0.346510 -0.511192
O2    O     O_R   0.216770 0.287800 0.653490 -0.495828
O3    O     O_R   0.283230 0.787800 0.346510 -0.505236
O4    O     O_R   0.716770 0.787800 0.653490 -0.498143
O5    O     O_R   0.554500 0.081650 0.170370 -0.510557
O6    O     O_R   0.445500 0.081650 0.829630 -0.504847
O7    O     O_R   0.054500 0.581650 0.170370 -0.501304
O8    O     O_R   0.945500 0.581650 0.829630 -0.507722
O9    O     O_R   0.545430 0.285140 0.163100 -0.508158
O10   O     O_R   0.454570 0.285140 0.836900 -0.506859
O11   O     O_R   0.045430 0.785140 0.163100 -0.500970
O12   O     O_R   0.954570 0.785140 0.836900 -0.510731
O13   O     O_R   0.677850 0.374730 0.185500 -0.492524
O14   O     O_R   0.322150 0.374730 0.814500 -0.479740
O15   O     O_R   0.177850 0.874730 0.185500 -0.501528
O16   O     O_R   0.822150 0.874730 0.814500 -0.479460
O17   O     O_3   0.664630 0.164620 0.255130 -0.305675
O18   O     O_3   0.335370 0.164620 0.744870 -0.346190
O19   O     O_3   0.164630 0.664620 0.255130 -0.338325
O20   O     O_3   0.835370 0.664620 0.744870 -0.342104
O21   O     O_R   0.760130 0.037060 0.338610 -0.508229
O22   O     O_R   0.239870 0.037060 0.661390 -0.525432
O23   O     O_R   0.260130 0.537060 0.338610 -0.520108
O24   O     O_R   0.739870 0.537060 0.661390 -0.522058
O25   O     O_R   0.666620 0.921370 0.332440 -0.488025
O26   O     O_R   0.333380 0.921370 0.667560 -0.473437
O27   O     O_R   0.166620 0.421370 0.332440 -0.494130
O28   O     O_R   0.833380 0.421370 0.667560 -0.473444
O29   O     O_R   0.557170 0.082420 0.312350 -0.486147
O30   O     O_R   0.442830 0.082420 0.687650 -0.481728
O31   O     O_R   0.057170 0.582420 0.312350 -0.475529
O32   O     O_R   0.942830 0.582420 0.687650 -0.481542
O33   O     O_R   0.548310 0.285980 0.316250 -0.486575
O34   O     O_R   0.451690 0.285980 0.683750 -0.515026
O35   O     O_R   0.048310 0.785980 0.316250 -0.482605
O36   O     O_R   0.951690 0.785980 0.683750 -0.510321
O37   O     O_R   0.680520 0.375500 0.327470 -0.506471
O38   O     O_R   0.319480 0.375500 0.672530 -0.445394
O39   O     O_R   0.180520 0.875500 0.327470 -0.491687
O40   O     O_R   0.819480 0.875500 0.672530 -0.449114
O41   O     O_R   0.780350 0.286970 0.193350 -0.508069
O42   O     O_R   0.219650 0.286970 0.806650 -0.489154
O43   O     O_R   0.280350 0.786970 0.193350 -0.506092
O44   O     O_R   0.719650 0.786970 0.806650 -0.487806
O45   O     O_R   0.757460 0.036290 0.196640 -0.481524
O46   O     O_R   0.242540 0.036290 0.803360 -0.495462
O47   O     O_R   0.257460 0.536290 0.196640 -0.480924
O48   O     O_R   0.742540 0.536290 0.803360 -0.495527
O49   O     O_R   0.663740 0.920540 0.179290 -0.490094
O50   O     O_R   0.336260 0.920540 0.820710 -0.483895
O51   O     O_R   0.163740 0.420540 0.179290 -0.491659
O52   O     O_R   0.836260 0.420540 0.820710 -0.485058
C97   C     C_2   0.849555 0.229669 0.568218 0.572988
O53   O     O_2   0.836376 0.166933 0.616724 -0.507707
O54   O     O_R   0.914960 0.224562 0.546907 -0.705441
H33   H     H_    0.946611 0.163811 0.574921 0.341054
C98   C     C_2   0.296938 0.188541 0.403955 0.559567
O55   O     O_2   0.356783 0.153362 0.408846 -0.522924
O56   O     O_R   0.247503 0.143439 0.351354 -0.677714
H34   H     H_    0.267555 0.081857 0.320420 0.358248
C99   C     C_2   0.332392 0.703423 0.584827 0.572216
O57   O     O_2   0.315043 0.654867 0.636345 -0.495675
O58   O     O_R   0.398868 0.685396 0.567788 -0.711172
H35   H     H_    0.427206 0.627325 0.600945 0.343983
C100  C     C_2   0.787845 0.697603 0.401621 0.554897
O59   O     O_2   0.846995 0.659891 0.403817 -0.533079
O60   O     O_R   0.736800 0.660717 0.348239 -0.686219
H36   H     H_    0.755422 0.604312 0.313644 0.342309

loop_
_geom_bond_atom_site_label_1
_geom_bond_atom_site_label_2
_ccdc_geom_bond_type
C58   C62   S    
Cr9   O13   S    
O58   H35   S    
C67   C83   S    
Cr10  O10   S    
C49   H29   S    
C17   C29   S    
C99   O57   D    
C14   C18   S    
C7    C27   S    
C35   C39   S    
C35   C36   S    
C8    C96   S    
C81   O41   A    
C44   C80   S    
C19   C31   S    
Cr6   O18   S    
Cr3   O47   S    
C94   H6    S    
C3    O27   A    
C38   C49   S    
C100  O59   D    
C10   C22   S    
C15   C19   S    
Cr5   O5    S    
Cr11  O35   S    
C37   C41   S    
C33   C42   S    
C38   H22   S    
C23   H19   S    
C16   C20   S    
Cr4   O48   S    
C9    C69   S    
Cr1   O45   S    
C38   C42   S    
Cr3   O19   S    
C16   H12   S    
C15   C95   S    
C73   O49   A    
C11   C71   S    
C13   H9    S    
C22   H18   S    
C83   O15   A    
C34   H26   S    
C69   O1    A    
Cr8   O52   S    
C81   O13   A    
Cr1   O41   S    
Cr12  O40   S    
C80   O12   A    
C46   O34   A    
C71   O39   A    
C98   O56   S    
C26   C98   S    
C9    C13   S    
C59   C67   T    
Cr12  O12   S    
C55   C74   S    
C11   C15   S    
C17   H15   S    
Cr9   O17   S    
Cr2   O18   S    
C15   H11   S    
Cr10  O14   S    
C55   C63   T    
C4    O24   A    
Cr5   O29   S    
C18   C30   S    
C23   C27   S    
C2    O26   A    
C20   H14   S    
C4    C29   S    
C76   O48   A    
C3    O23   A    
Cr8   O32   S    
C46   C85   S    
Cr11  O11   S    
C44   C52   S    
C39   C52   S    
C40   H24   S    
Cr5   O17   S    
O56   H34   S    
Cr6   O26   S    
Cr9   O33   S    
C87   C92   T    
Cr2   O2    S    
Cr7   O31   S    
C28   C100  S    
C99   O58   S    
C2    O22   A    
C98   O55   D    
C34   C41   S    
C53   C61   T    
Cr8   O20   S    
C36   H28   S    
C28   C32   S    
C41   C49   S    
C73   O45   A    
Cr2   O22   S    
C69   O37   A    
C58   C66   T    
C7    C11   S    
O60   H36   S    
C100  O60   S    
C25   C29   S    
C54   C75   S    
C70   O2    A    
C16   C96   S    
C27   C31   S    
C51   C52   S    
C68   C84   S    
C12   C16   S    
C84   O44   A    
C10   C14   S    
C35   H27   S    
C91   C92   S    
C29   C93   S    
C19   C23   S    
C70   O38   A    
C39   C43   S    
C54   C62   T    
C97   O54   S    
Cr10  O18   S    
C1    C32   S    
C33   C37   S    
C46   O30   A    
C82   O14   A    
C13   C93   S    
C2    C31   S    
Cr1   O17   S    
C6    H2    S    
C3    C30   S    
C75   O51   A    
C5    C9    S    
C76   O52   A    
C7    C95   S    
C45   O33   A    
Cr8   O28   S    
Cr4   O20   S    
C5    C93   S    
Cr12  O16   S    
C88   C91   T    
C36   C40   S    
C8    C12   S    
Cr11  O19   S    
C74   O50   A    
C56   C64   T    
C33   C34   S    
Cr10  O34   S    
C48   C87   S    
C83   O43   A    
Cr4   O24   S    
C78   O10   A    
C93   H5    S    
Cr7   O27   S    
Cr5   O25   S    
C35   C44   S    
Cr1   O1    S    
C43   C79   S    
C42   C50   S    
C5    C25   S    
C10   C70   S    
C14   C94   S    
Cr9   O37   S    
C32   C96   S    
C80   O8    A    
C14   H10   S    
Cr1   O21   S    
Cr4   O4    S    
C8    C28   S    
C49   C50   S    
Cr3   O23   S    
C59   C63   S    
C53   C76   S    
Cr7   O51   S    
C72   O40   A    
C77   O9    A    
C9    C21   S    
C77   O5    A    
C25   C97   S    
C48   O32   A    
C42   C78   S    
C79   O11   A    
C20   C32   S    
Cr3   O3    S    
C72   O4    A    
C21   C25   S    
C19   H13   S    
C56   C73   S    
Cr11  O39   S    
C1    O25   A    
C34   C38   S    
Cr3   O43   S    
C33   H25   S    
C75   O47   A    
C24   C28   S    
C57   C65   T    
C86   C89   T    
C45   O29   A    
C6    C10   S    
C47   O31   A    
C85   C90   T    
C50   H30   S    
C57   C61   S    
Cr12  O20   S    
Cr2   O42   S    
C7    H3    S    
C40   C51   S    
Cr9   O9    S    
C82   O42   A    
Cr5   O49   S    
C13   C17   S    
C60   C64   S    
C47   C88   S    
C20   C24   S    
C18   C22   S    
C45   C86   S    
C95   H7    S    
Cr8   O8    S    
Cr2   O46   S    
Cr6   O6    S    
C27   C99   S    
C41   C77   S    
C37   C50   S    
C84   O16   A    
Cr7   O19   S    
C6    C26   S    
C71   O3    A    
C39   H23   S    
Cr6   O30   S    
C43   C51   S    
C31   C95   S    
Cr12  O36   S    
C11   C23   S    
Cr6   O50   S    
C8    H4    S    
C37   H21   S    
C79   O7    A    
C12   C72   S    
C12   C24   S    
Cr4   O44   S    
C17   C21   S    
C78   O6    A    
C47   O35   A    
C1    O21   A    
O54   H33   S    
C52   H32   S    
C4    O28   A    
C40   C44   S    
C60   C68   T    
C30   C94   S    
C97   O53   D    
C22   C26   S    
C6    C94   S    
C24   H20   S    
C65   C81   S    
C96   H8    S    
C36   C43   S    
C5    H1    S    
C74   O46   A    
C89   C90   S    
C21   H17   S    
Cr10  O38   S    
Cr11  O15   S    
C66   C82   S    
C18   H16   S    
Cr7   O7    S    
C48   O36   A    
C26   C30   S    
C51   H31   S    
