data_mof_unit_7389.cif
_audit_creation_date              2013-03-05T16:25:43-0500
_audit_creation_method            fapswitch 2.2
_symmetry_space_group_name_H-M    P1
_symmetry_Int_Tables_number       1
_space_group_crystal_system       triclinic
_cell_length_a                    10.840981
_cell_length_b                    15.069568
_cell_length_c                    13.926884
_cell_angle_alpha                 91.064135
_cell_angle_beta                  90.55326
_cell_angle_gamma                 90.840796
_cell_volume                      2274.47021589

loop_
_atom_site_label
_atom_site_type_symbol
_atom_site_description
_atom_site_fract_x
_atom_site_fract_y
_atom_site_fract_z
_atom_type_partial_charge
O1    O     O_R   0.500010 0.371450 0.581430 -0.603641
O2    O     O_R   0.499990 0.628550 0.418570 -0.607778
O3    O     O_R   0.500010 0.371460 0.418560 -0.539936
O4    O     O_R   0.499990 0.628540 0.581440 -0.538399
C1    C     C_R   0.498150 0.329994 0.499343 0.801909
C2    C     C_R   0.498719 0.670155 0.500657 0.804727
O5    O     O_R   0.319640 0.500000 0.581430 -0.603876
O6    O     O_R   0.680360 0.500000 0.418570 -0.600752
O7    O     O_R   0.319640 0.500010 0.418560 -0.535155
O8    O     O_R   0.680360 0.499990 0.581440 -0.533186
C3    C     C_R   0.262521 0.503169 0.499597 0.795034
C4    C     C_R   0.737818 0.498987 0.500694 0.807716
Cu1   Cu    Cu3+1 0.500000 0.499990 0.596430 0.999859
Cu2   Cu    Cu3+1 0.500000 0.500010 0.403570 1.000010
H1    H     H_    0.286239 0.698767 0.126181 0.146747
H2    H     H_    0.734472 0.355621 0.907483 0.145261
C5    C     C_R   0.257490 0.700841 0.278983 -0.092611
C6    C     C_R   0.768452 0.326598 0.758142 -0.119233
H3    H     H_    0.318190 0.757510 0.292177 0.149898
H4    H     H_    0.720990 0.262998 0.759147 0.132500
C7    C     C_R   0.197869 0.660427 0.355670 -0.108074
C8    C     C_R   0.821877 0.356532 0.673307 -0.122588
H5    H     H_    0.213343 0.686382 0.427919 0.107684
H6    H     H_    0.815599 0.315850 0.608515 0.111467
C9    C     C_R   0.120357 0.585878 0.339253 0.116955
C10   C     C_R   0.883454 0.439052 0.672307 0.125262
C11   C     C_R   0.100057 0.554632 0.244626 -0.086284
C12   C     C_R   0.893166 0.490259 0.757443 -0.075323
H7    H     H_    0.040020 0.497727 0.230365 0.149791
H8    H     H_    0.941325 0.553757 0.758019 0.150749
C13   C     C_R   0.160154 0.595121 0.168175 -0.145405
C14   C     C_R   0.838954 0.460384 0.841824 -0.140614
H9    H     H_    0.145931 0.569773 0.095616 0.139715
H10   H     H_    0.845197 0.500629 0.906927 0.136336
C15   C     C_R   0.239292 0.667848 0.185392 -0.110512
C16   C     C_R   0.776474 0.378669 0.842125 -0.100445
C17   C     C_R   0.933142 0.534009 0.422473 -0.225104
C18   C     C_R   0.067783 0.474833 0.579870 -0.233695
H11   H     H_    0.880823 0.559365 0.362402 0.149318
H12   H     H_    0.119694 0.450274 0.640598 0.162606
C19   C     C_R   0.871999 0.499868 0.502327 -0.060127
C20   C     C_R   0.128797 0.507143 0.499426 -0.058472
C21   C     C_R   0.940240 0.471744 0.583094 0.005120
C22   C     C_R   0.061166 0.540426 0.420993 0.027581
C23   C     C_R   0.564432 0.094750 0.560859 -0.140107
C24   C     C_R   0.529371 0.906200 0.422558 -0.151991
H13   H     H_    0.626178 0.059303 0.607727 0.165605
H14   H     H_    0.564104 0.942162 0.361568 0.165442
C25   C     C_R   0.569892 0.186838 0.560218 -0.192649
C26   C     C_R   0.535521 0.814210 0.422356 -0.200576
H15   H     H_    0.635073 0.221644 0.606856 0.135784
H16   H     H_    0.574420 0.780163 0.360771 0.154186
C27   C     C_R   0.492878 0.233450 0.498576 -0.067599
C28   C     C_R   0.493366 0.766898 0.501583 -0.068674
C29   C     C_R   0.407345 0.187562 0.439554 -0.144586
C30   C     C_R   0.442923 0.812398 0.580260 -0.145776
H17   H     H_    0.343384 0.223575 0.395422 0.217153
H18   H     H_    0.407006 0.776279 0.640635 0.192865
C31   C     C_R   0.400522 0.095106 0.440264 0.179751
C32   C     C_R   0.435731 0.904637 0.580589 0.184185
C33   C     C_R   0.480056 0.048535 0.501106 0.052606
C34   C     C_R   0.479696 0.951723 0.501335 0.056235
C35   C     C_R   0.577406 0.558336 0.110372 -0.281896
C36   C     C_R   0.455494 0.425593 0.889692 -0.281755
H19   H     H_    0.641509 0.603587 0.077159 0.145197
H20   H     H_    0.422866 0.365459 0.922623 0.156431
C37   C     C_R   0.573974 0.558311 0.211496 0.005773
C38   C     C_R   0.454172 0.428276 0.788553 0.009703
H21   H     H_    0.632663 0.604178 0.252264 0.138507
H22   H     H_    0.417326 0.371795 0.748227 0.155550
N1    N     N_R   0.500000 0.500020 0.258690 -0.229437
N2    N     N_R   0.500000 0.499980 0.741310 -0.225274
C39   C     C_R   0.427912 0.440366 0.206606 0.558471
C40   C     C_R   0.546879 0.571256 0.794322 0.536171
C41   C     C_R   0.425565 0.441081 0.105777 -0.308937
C42   C     C_R   0.543422 0.572194 0.895160 -0.320185
H23   H     H_    0.363887 0.394811 0.068635 0.162974
H24   H     H_    0.576747 0.631137 0.932976 0.169907
C43   C     C_R   0.501109 0.499623 0.054825 0.087094
C44   C     C_R   0.499946 0.498783 0.945646 0.083589
I1    I     I_    0.265753 0.030078 0.351419 -0.314414
I2    I     I_    0.354256 0.968442 0.700841 -0.312563
N3    N     N_R   0.360755 0.371306 0.252585 0.120038
O9    O     O_R   0.248855 0.385890 0.280948 -0.378971
O10   O     O_R   0.393075 0.289756 0.235527 -0.378178
N4    N     N_R   0.602920 0.646134 0.749525 0.122211
O11   O     O_R   0.705568 0.636453 0.703368 -0.356079
O12   O     O_R   0.570723 0.725755 0.775727 -0.380813

loop_
_geom_bond_atom_site_label_1
_geom_bond_atom_site_label_2
_geom_bond_distance
_ccdc_geom_bond_type
C35   H19   1.079778 S    
C29   C31   1.394364 A    
C11   H7    1.083153 S    
C36   C44   1.414630 A    
Cu2   N1    2.017728 S    
C35   C43   1.416395 A    
O5    C3    1.293771 A    
C26   C28   1.401439 A    
C40   C42   1.405042 A    
C24   C34   1.399498 A    
O1    C1    1.292393 A    
C14   C16   1.396776 A    
C1    C27   1.454996 S    
C42   H24   1.079999 S    
C18   C20   1.398166 A    
N4    O12   1.301194 A    
C3    C20   1.451795 S    
C32   C34   1.406515 A    
O4    Cu1   1.952262 S    
C32   I2    2.122051 S    
C25   H15   1.078832 S    
C26   H16   1.083377 S    
C13   H9    1.082490 S    
C37   N1    1.362974 A    
C38   N2    1.365380 A    
C23   H13   1.083727 S    
Cu1   Cu2   2.685946 S    
C19   C21   1.415280 A    
O2    C2    1.293890 A    
C20   C22   1.413497 A    
C2    C28   1.459705 S    
C9    C22   1.485602 S    
H1    C15   1.082392 S    
C10   C21   1.481210 S    
C35   C37   1.409197 A    
C27   C29   1.399647 A    
C7    H5    1.083391 S    
C28   C30   1.401599 A    
C31   C33   1.407011 A    
C11   C13   1.398664 A    
C31   I1    2.122249 S    
C12   C14   1.397967 A    
N2    C40   1.379967 A    
N1    C39   1.374502 A    
N4    O11   1.299209 A    
C5    C7    1.398304 A    
C30   C32   1.393258 A    
C37   H21   1.081877 S    
C36   H20   1.079719 S    
O7    Cu2   1.968397 S    
C4    C19   1.454466 S    
C41   H23   1.080318 S    
N3    O9    1.299924 A    
C23   C25   1.388321 A    
O6    C4    1.297517 A    
C40   N4    1.430017 S    
O7    C3    1.292979 A    
O3    Cu2   1.952262 S    
O8    C4    1.290733 A    
O4    C2    1.298225 A    
N3    O10   1.301111 A    
C29   H17   1.080875 S    
C8    H6    1.082467 S    
O1    Cu1   1.944417 S    
C39   C41   1.404456 A    
C36   C38   1.409827 A    
C7    C9    1.406950 A    
O6    Cu2   1.964403 S    
C6    C8    1.400066 A    
C42   C44   1.400114 A    
O3    C1    1.297234 A    
O8    Cu1   1.968395 S    
Cu1   N2    2.017730 S    
C9    C11   1.405419 A    
C24   C26   1.388771 A    
C10   C12   1.404857 A    
C17   C22   1.390231 A    
C12   H8    1.083172 S    
C18   C21   1.383992 A    
C17   H11   1.084748 S    
H2    C16   1.082394 S    
C18   H12   1.085130 S    
C6    C16   1.397596 A    
C25   C27   1.397587 A    
C13   C15   1.397620 A    
C23   C33   1.399763 A    
C5    H3    1.082318 S    
C30   H18   1.082580 S    
C6    H4    1.081519 S    
C17   C19   1.402269 A    
C33   C34   1.458924 S    
O2    Cu2   1.944417 S    
C43   C44   1.520274 S    
C24   H14   1.083626 S    
O5    Cu1   1.964403 S    
C38   H22   1.080444 S    
C8    C10   1.403102 A    
C5    C15   1.397552 A    
C41   C43   1.402080 A    
C39   N3    1.426418 S    
C14   H10   1.082422 S    
