data_mof_unit_31989.cif
_audit_creation_date              2012-12-10T18:33:41-0500
_audit_creation_method            fapswitch 2.2
_symmetry_space_group_name_H-M    P1
_symmetry_Int_Tables_number       1
_space_group_crystal_system       triclinic
_cell_length_a                    10.514833
_cell_length_b                    14.906402
_cell_length_c                    15.416847
_cell_angle_alpha                 82.091001
_cell_angle_beta                  88.987653
_cell_angle_gamma                 103.683346
_cell_volume                      2322.32700793

loop_
_atom_site_label
_atom_site_type_symbol
_atom_type_description
_atom_site_fract_x
_atom_site_fract_y
_atom_site_fract_z
_atom_type_partial_charge
C1    C     C_R   0.483450 0.441597 0.662393 0.844197
C2    C     C_R   0.598222 0.498263 0.040141 -0.002415
C3    C     C_R   0.614530 0.407666 0.069299 -0.308615
C4    C     C_R   0.600687 0.620360 0.917803 -0.319970
C5    C     C_R   0.599183 0.339917 0.013254 0.488355
C6    C     C_R   0.615931 0.687978 0.974195 0.490565
C7    C     C_R   0.745424 0.849029 0.597861 0.460572
C8    C     C_R   0.336668 0.171993 0.340779 0.435474
C9    C     C_R   0.689014 0.756047 0.591258 -0.126200
C10   C     C_R   0.360516 0.256919 0.373394 -0.101708
C11   C     C_R   0.506625 0.794685 0.522808 0.010683
C12   C     C_R   0.521597 0.558566 0.337625 0.861042
C13   C     C_R   0.471647 0.199432 0.491778 0.042295
C14   C     C_R   0.561560 0.890980 0.520221 -0.058164
C15   C     C_R   0.468986 0.116865 0.456350 -0.035767
C16   C     C_R   0.742350 0.500441 0.498975 0.899491
C17   C     C_R   0.257690 0.499628 0.501121 0.893467
C18   C     C_R   0.678578 0.918594 0.565248 -0.079126
C19   C     C_R   0.392563 0.099870 0.382276 -0.126907
C20   C     C_R   0.505224 0.959563 0.472517 -0.095415
C21   C     C_R   0.541653 0.052361 0.492029 -0.063511
C22   C     C_R   0.655697 0.080215 0.540449 0.416530
C23   C     C_R   0.509372 0.472443 0.812759 -0.224664
C24   C     C_R   0.423081 0.940348 0.400772 0.490080
C25   C     C_R   0.727208 0.014319 0.572255 -0.118772
C26   C     C_R   0.377710 0.012839 0.351617 -0.118461
C27   C     C_3   0.937518 0.425775 0.468060 0.662524
C28   C     C_3   0.063086 0.574695 0.533102 0.649822
C29   C     C_3   0.013668 0.421963 0.552012 -0.332322
C30   C     C_3   0.986169 0.578491 0.449485 -0.291564
C31   C     C_3   0.123006 0.500346 0.501604 -0.133736
C32   C     C_3   0.877175 0.500119 0.499146 -0.107951
C33   C     C_3   0.047203 0.503037 0.417469 -0.356010
C34   C     C_R   0.564904 0.533088 0.187631 -0.221005
C35   C     C_3   0.952128 0.497852 0.583502 -0.354430
C36   C     C_R   0.495331 0.407655 0.754651 -0.054397
C37   C     C_R   0.550501 0.595108 0.244717 -0.074046
C38   C     C_R   0.545176 0.294898 0.869166 -0.153312
C39   C     C_R   0.593602 0.721542 0.123503 -0.134717
C40   C     C_R   0.512222 0.318074 0.783015 -0.227686
C41   C     C_R   0.568111 0.690067 0.212929 -0.202675
C42   C     C_3   0.964927 0.864316 0.577674 -0.321796
C43   C     C_3   0.141563 0.170697 0.276736 -0.395449
C44   C     C_3   0.722579 0.199359 0.624993 -0.290210
C45   C     C_R   0.554965 0.454139 0.896023 0.052895
C46   C     C_3   0.273954 0.806162 0.375991 -0.326627
C47   C     C_3   0.945379 0.293356 0.409515 -0.222803
C48   C     C_3   0.158380 0.639317 0.651215 -0.307515
C49   C     C_3   0.521787 0.202400 0.103892 -0.209476
C50   C     C_3   0.735243 0.815933 0.881578 -0.216116
C51   C     C_2   0.855662 0.049279 0.608907 0.539811
C52   C     C_2   0.318624 0.995478 0.267020 0.504943
C53   C     C_R   0.592540 0.563074 0.098027 0.051220
C54   C     C_R   0.566892 0.362404 0.926413 0.053298
C55   C     C_R   0.601709 0.658265 0.064944 0.050841
C56   C     C_R   0.584073 0.524535 0.950441 0.004620
H1    H     H_    0.029035 0.358360 0.592801 0.159116
H2    H     H_    0.484374 0.537877 0.791510 0.157195
H3    H     H_    0.559457 0.739496 0.256724 0.203714
H4    H     H_    0.502480 0.266899 0.738508 0.149252
H5    H     H_    0.555724 0.224781 0.890242 0.188664
H6    H     H_    0.603124 0.794891 0.100255 0.203503
H7    H     H_    0.644459 0.389171 0.134664 0.166228
H8    H     H_    0.604284 0.644447 0.848415 0.155434
H9    H     H_    0.964549 0.909515 0.513837 0.133905
H10   H     H_    0.958104 0.791046 0.567100 0.186269
H11   H     H_    0.060658 0.889689 0.606172 0.205137
H12   H     H_    0.971149 0.642602 0.409363 0.156446
H13   H     H_    0.137203 0.244572 0.275038 0.172258
H14   H     H_    0.093493 0.127700 0.338829 0.147882
H15   H     H_    0.084418 0.143810 0.222021 0.213829
H16   H     H_    0.824898 0.208243 0.645283 0.185963
H17   H     H_    0.653735 0.149232 0.675082 0.145442
H18   H     H_    0.700363 0.268682 0.623746 0.191256
H19   H     H_    0.224903 0.819212 0.314124 0.181624
H20   H     H_    0.217584 0.821091 0.432050 0.152199
H21   H     H_    0.269617 0.730310 0.386844 0.215237
H22   H     H_    0.993443 0.265255 0.467262 0.149370
H23   H     H_    0.509469 0.210570 0.554489 0.157431
H24   H     H_    0.020082 0.333070 0.357615 0.124309
H25   H     H_    0.885307 0.232909 0.382321 0.196773
H26   H     H_    0.199557 0.577024 0.666809 0.167709
H27   H     H_    0.067005 0.631061 0.691990 0.166246
H28   H     H_    0.231338 0.700290 0.668578 0.190574
H29   H     H_    0.422710 0.199149 0.078131 0.175412
H30   H     H_    0.529797 0.231658 0.166667 0.175548
H31   H     H_    0.532983 0.129838 0.118295 0.233181
H32   H     H_    0.709799 0.797819 0.815500 0.184326
H33   H     H_    0.823175 0.791243 0.903547 0.148904
H34   H     H_    0.410498 0.767609 0.502023 0.202051
H35   H     H_    0.761879 0.893204 0.875460 0.222075
H36   H     H_    0.936094 0.093450 0.566343 0.019211
H37   H     H_    0.218677 0.000148 0.256215 0.083977
H38   H     H_    0.327786 0.314955 0.339061 0.156106
H39   H     H_    0.739231 0.702738 0.614961 0.165329
H40   H     H_    0.089544 0.504806 0.350592 0.158245
H41   H     H_    0.908246 0.496008 0.649955 0.155356
H42   H     H_    0.547377 0.459988 0.213534 0.164148
N1    N     N_R   0.574200 0.731700 0.552740 -0.141711
N2    N     N_R   0.425800 0.268300 0.447260 -0.139863
O1    O     O_R   0.462600 0.383110 0.605620 -0.625863
O2    O     O_3   0.272129 0.164149 0.263641 -0.638868
O3    O     O_3   0.712546 0.174905 0.539162 -0.597824
O4    O     O_3   0.407677 0.855975 0.368313 -0.593776
O5    O     O_3   0.862364 0.348440 0.433514 -0.554240
O6    O     O_3   0.135101 0.657131 0.561547 -0.639166
O7    O     O_3   0.622122 0.253167 0.041777 -0.629879
O8    O     O_3   0.626453 0.781375 0.942091 -0.626454
O9    O     O_2   0.869705 0.033271 0.687539 -0.554650
O10   O     O_2   0.380454 0.972325 0.209767 -0.560551
O11   O     O_R   0.537400 0.616890 0.394380 -0.599454
O12   O     O_R   0.510210 0.531900 0.639510 -0.622363
O13   O     O_R   0.489790 0.468100 0.360490 -0.626256
O14   O     O_R   0.662240 0.425610 0.483080 -0.559224
O15   O     O_R   0.337760 0.574390 0.516920 -0.596821
O16   O     O_R   0.709860 0.574400 0.516970 -0.635243
O17   O     O_R   0.290140 0.425600 0.483030 -0.628781
O18   O     O_3   0.864106 0.869840 0.637021 -0.586037
Zn1   Zn    Zn3+2 0.468210 0.400660 0.477370 0.954016
Zn2   Zn    Zn3+2 0.531790 0.599340 0.522630 0.946988

loop_
_geom_bond_atom_site_label_1
_geom_bond_atom_site_label_2
_ccdc_geom_bond_type
C23   H2    S    
C38   C40   A    
C13   H23   S    
C40   H4    S    
C27   C29   S    
C34   C37   A    
C14   C18   A    
C6    O8    S    
C6    C55   A    
C46   H20   S    
C39   C41   A    
C27   C33   S    
C15   C19   A    
C23   C45   A    
C24   C26   A    
O17   Zn1   S    
C1    O12   A    
C11   C14   A    
O16   Zn2   S    
C27   O5    S    
C14   C20   A    
C11   N1    A    
C12   C37   S    
C19   C26   A    
C49   H31   S    
N1    Zn2   S    
O13   Zn1   S    
C48   O6    S    
C20   C24   A    
C45   C56   A    
C28   O6    S    
C47   O5    S    
C22   C25   A    
C42   H9    S    
C31   C33   S    
C49   O7    S    
C9    H39   S    
O14   Zn1   S    
C17   O17   A    
C38   H5    S    
C9    N1    A    
C21   C22   A    
C4    C56   A    
C50   O8    S    
C7    O18   S    
C18   C25   A    
C47   H24   S    
C16   O16   A    
C46   H19   S    
C44   O3    S    
C53   C55   A    
C39   C55   A    
C8    C19   A    
O1    Zn1   S    
C32   C35   S    
C49   H29   S    
C5    C54   A    
C36   C40   A    
C41   H3    S    
C4    C6    A    
O12   Zn2   S    
C42   O18   S    
C46   O4    S    
C22   O3    S    
C48   H28   S    
O11   Zn2   S    
C24   O4    S    
C10   N2    A    
C25   C51   S    
C26   C52   S    
C51   H36   S    
C50   H33   S    
C38   C54   A    
C52   O10   D    
C7    C18   A    
C52   H37   S    
N2    Zn1   S    
C44   H18   S    
C8    C10   A    
C29   H1    S    
C45   C54   A    
C23   C36   A    
C43   H14   S    
C13   C15   A    
C42   H11   S    
C17   C31   S    
C33   H40   S    
C1    O1    A    
C17   O15   A    
C12   O13   A    
C5    O7    S    
C28   C35   S    
C39   H6    S    
C4    H8    S    
C43   H15   S    
C30   C33   S    
C27   C32   S    
C49   H30   S    
C28   C31   S    
C3    C5    A    
C2    C53   A    
C16   O14   A    
C46   H21   S    
C3    H7    S    
C16   C32   S    
C29   C35   S    
C48   H27   S    
C13   N2    A    
C28   C30   S    
C2    C3    A    
C51   O9    D    
C43   O2    S    
C29   C31   S    
C2    C56   A    
C30   C32   S    
C11   H34   S    
C34   H42   S    
C48   H26   S    
C44   H16   S    
C47   H25   S    
C37   C41   A    
C44   H17   S    
C7    C9    A    
C50   H35   S    
C15   C21   A    
C20   C21   A    
C34   C53   A    
C43   H13   S    
O15   Zn2   S    
C42   H10   S    
C10   H38   S    
C50   H32   S    
C47   H22   S    
C35   H41   S    
C8    O2    S    
C12   O11   A    
C30   H12   S    
C1    C36   S    
