data_mof_unit_57283.cif
_audit_creation_date              2012-12-11T20:37:35-0500
_audit_creation_method            fapswitch 2.2
_symmetry_space_group_name_H-M    P1
_symmetry_Int_Tables_number       1
_space_group_crystal_system       triclinic
_cell_length_a                    8.510252
_cell_length_b                    18.850059
_cell_length_c                    22.929607
_cell_angle_alpha                 97.917689
_cell_angle_beta                  89.574216
_cell_angle_gamma                 94.24238
_cell_volume                      3633.27665255

loop_
_atom_site_label
_atom_site_type_symbol
_atom_type_description
_atom_site_fract_x
_atom_site_fract_y
_atom_site_fract_z
_atom_type_partial_charge
Ba1   Ba    Ba6+2 0.849480 0.533290 0.473010 1.681696
Ba2   Ba    Ba6+2 0.340340 0.466770 0.527000 1.693483
C1    C     C_3   0.654310 0.796945 0.314154 -0.194895
C2    C     C_R   0.059439 0.569526 0.947783 -0.056186
C3    C     C_R   0.010545 0.565561 0.888277 0.642389
C4    C     C_3   0.060957 0.677444 0.320276 0.329828
C5    C     C_R   0.963347 0.437712 0.881507 0.594600
C6    C     C_R   0.006240 0.440323 0.941402 -0.010044
C7    C     C_R   0.056734 0.506593 0.974529 -0.056866
C8    C     C_R   0.110498 0.635259 0.981151 -0.096827
C9    C     C_R   0.160182 0.639154 0.039936 0.151442
C10   C     C_R   0.157507 0.576016 0.067622 -0.005611
C11   C     C_R   0.103380 0.509848 0.034654 -0.083792
C12   C     C_3   0.609979 0.723599 0.334955 0.358531
C13   C     C_R   0.000315 0.377854 0.968857 -0.034504
C14   C     C_R   0.044103 0.380954 0.027804 -0.055291
C15   C     C_R   0.096357 0.446573 0.061405 -0.030256
C16   C     C_3   0.046086 0.694193 0.257715 -0.271917
C17   C     C_R   0.141909 0.449921 0.121042 0.602896
C18   C     C_R   0.206841 0.576805 0.127063 0.593556
C19   C     C_2   0.786753 0.463483 0.772070 -0.132932
C20   C     C_3   0.746551 0.462364 0.708319 0.069861
C21   C     C_1   0.010460 0.513503 0.689359 0.057545
C22   C     C_2   0.041330 0.524919 0.748139 0.119515
C23   C     C_3   0.513268 0.349725 0.343614 0.272959
C24   C     C_2   0.927213 0.495755 0.792293 0.244356
C25   C     C_R   0.394533 0.545036 0.234451 -0.105558
C26   C     C_R   0.442869 0.543632 0.292751 -0.021681
C27   C     C_R   0.188189 0.487517 0.315236 0.039352
C28   C     C_3   0.205536 0.690157 0.603697 0.450863
C29   C     C_R   0.138571 0.488729 0.256722 -0.114924
C30   C     C_R   0.242098 0.516826 0.215246 0.204908
C31   C     C_2   0.891024 0.467204 0.669696 -0.256653
C32   C     C_2   0.395984 0.696778 0.476476 -0.100257
C33   C     C_3   0.277351 0.752623 0.476182 -0.020359
C34   C     C_3   0.522458 0.318916 0.278280 -0.122485
C35   C     C_2   0.354684 0.823276 0.463048 -0.136775
C36   C     C_2   0.507968 0.839999 0.477814 -0.078108
C37   C     C_2   0.602894 0.783046 0.497100 -0.121137
C38   C     C_1   0.536091 0.717625 0.501491 0.073131
C39   C     C_R   0.668098 0.058437 0.496773 0.507726
C40   C     C_3   0.214909 0.774649 0.620205 0.169478
C41   C     C_R   0.573476 0.915685 0.482656 0.512166
C42   C     C_R   0.614174 0.186567 0.484121 -0.128437
C43   C     C_R   0.662591 0.260794 0.489300 -0.018351
C44   C     C_R   0.903102 0.240151 0.539382 -0.016318
C45   C     C_3   0.049485 0.276159 0.687511 0.563289
C46   C     C_R   0.859626 0.165357 0.532896 -0.093899
C47   C     C_R   0.713637 0.137896 0.505464 -0.154712
C48   C     C_R   0.804551 0.286331 0.517472 -0.279771
C49   C     C_3   0.015392 0.306223 0.387459 0.310911
C50   C     C_3   0.030672 0.228054 0.359076 0.090168
C51   C     C_3   0.660180 0.676010 0.673098 0.152756
C52   C     C_3   0.598784 0.723087 0.731623 0.054290
C53   C     C_2   0.832779 0.687626 0.674787 0.703232
C54   C     C_2   0.615089 0.597026 0.670754 0.825772
C55   C     C_2   0.808345 0.832793 0.338173 0.890974
C56   C     C_3   0.065049 0.222852 0.733832 -0.247641
C57   C     C_2   0.685501 0.798754 0.743854 0.941142
C58   C     C_2   0.192176 0.244121 0.780181 0.882186
C59   C     C_2   0.460496 0.159479 0.456553 0.925632
C60   C     C_2   0.973279 0.115210 0.548581 0.936383
C61   C     C_3   0.523602 0.273170 0.637041 0.339181
C62   C     C_3   0.505377 0.194629 0.646674 -0.250824
C63   C     C_R   0.341203 0.513021 0.331675 -0.282428
H1    H     H_    0.648879 0.725613 0.381330 0.078715
H2    H     H_    0.645375 0.305628 0.267377 0.139436
H3    H     H_    0.655234 0.790341 0.265181 0.103845
H4    H     H_    0.155544 0.723615 0.244589 0.169501
H5    H     H_    0.951436 0.214814 0.756985 0.038800
H6    H     H_    0.087463 0.168910 0.710517 0.141356
H7    H     H_    0.628277 0.280477 0.609509 -0.042740
H8    H     H_    0.420156 0.285550 0.612668 0.110846
H9    H     H_    0.602510 0.182008 0.674690 0.137912
H10   H     H_    0.508187 0.159689 0.603687 0.082638
H11   H     H_    0.947613 0.651612 0.332929 0.108702
H12   H     H_    0.158029 0.796311 0.583409 0.036593
H13   H     H_    0.390871 0.182221 0.667600 0.172484
H14   H     H_    0.037272 0.331419 0.046986 0.134514
H15   H     H_    0.961281 0.326085 0.944843 0.131475
H16   H     H_    0.476127 0.567023 0.204000 0.119354
H17   H     H_    0.113548 0.684474 0.961539 0.128538
H18   H     H_    0.700133 0.443117 0.801800 0.123308
H19   H     H_    0.021826 0.466228 0.243068 0.129748
H20   H     H_    0.384084 0.505663 0.374321 0.061138
H21   H     H_    0.152578 0.638734 0.320730 -0.019493
H22   H     H_    0.889400 0.438881 0.625179 0.073397
H23   H     H_    0.892059 0.314202 0.401297 -0.016925
H24   H     H_    0.281211 0.864153 0.451751 0.105310
H25   H     H_    0.719248 0.799294 0.515321 0.148191
H26   H     H_    0.841838 0.342888 0.520481 0.057304
H27   H     H_    0.024017 0.643199 0.227530 0.095743
H28   H     H_    0.945095 0.726843 0.253641 0.155761
H29   H     H_    0.322423 0.672632 0.590555 -0.031539
H30   H     H_    0.123973 0.675104 0.565665 -0.001040
H31   H     H_    0.380428 0.857608 0.647780 0.200968
H32   H     H_    0.418609 0.811542 0.583932 0.140024
H33   H     H_    0.103391 0.852780 0.673051 0.204851
H34   H     H_    0.095807 0.319345 0.425966 0.022084
H35   H     H_    0.198453 0.799820 0.711363 0.199088
H36   H     H_    0.945068 0.158364 0.287920 0.213277
H37   H     H_    0.809990 0.211080 0.321048 0.204885
H38   H     H_    0.880027 0.180976 0.414433 0.175793
H39   H     H_    0.070861 0.189620 0.436492 0.197648
H40   H     H_    0.012188 0.703572 0.733753 0.345258
H41   H     H_    0.766751 0.565394 0.605554 0.243868
H42   H     H_    0.934590 0.877751 0.409568 0.336136
H43   H     H_    0.660399 0.824006 0.661217 0.322136
H44   H     H_    0.552159 0.710649 0.819477 0.201520
H45   H     H_    0.154625 0.223458 0.344068 0.125805
H46   H     H_    0.731609 0.688242 0.798190 0.253336
H47   H     H_    0.391316 0.762830 0.762566 0.162628
H48   H     H_    0.370141 0.683044 0.720630 0.233203
H49   H     H_    0.405657 0.693882 0.287813 0.195508
H50   H     H_    0.400562 0.673042 0.357516 0.133637
H51   H     H_    0.359716 0.381315 0.250143 0.196939
H52   H     H_    0.549768 0.415397 0.246799 0.181622
H53   H     H_    0.039222 0.363401 0.751354 0.168233
H54   H     H_    0.218811 0.352679 0.722718 0.230984
H55   H     H_    0.865800 0.317317 0.649251 0.108120
H56   H     H_    0.562650 0.834544 0.328961 0.081979
H57   H     H_    0.814628 0.281054 0.708225 0.183294
H58   H     H_    0.038539 0.250550 0.848327 0.297926
H59   H     H_    0.119337 0.741718 0.071177 0.186168
H60   H     H_    0.306007 0.729614 0.048193 0.187940
H61   H     H_    0.182695 0.616747 0.759821 0.206465
H62   H     H_    0.278936 0.540232 0.752960 0.252345
H63   H     H_    0.325028 0.143622 0.383651 0.316076
H64   H     H_    0.101739 0.031244 0.521057 0.332629
H65   H     H_    0.424189 0.590852 0.445859 0.211208
H66   H     H_    0.293232 0.604524 0.502045 0.189173
H67   H     H_    0.389070 0.359612 0.355353 0.005079
H68   H     H_    0.589532 0.400572 0.352123 0.041295
H69   H     H_    0.445269 0.268328 0.269876 0.144229
N1    N     N_R   0.968657 0.499785 0.854855 -0.421571
N2    N     N_3   0.995809 0.176547 0.400216 -0.488904
N3    N     N_3   0.614996 0.685750 0.783953 -0.470264
N4    N     N_3   0.432258 0.733058 0.724280 -0.468499
N5    N     N_3   0.438441 0.712064 0.331474 -0.492407
N6    N     N_3   0.474747 0.368618 0.239570 -0.480875
N7    N     N_3   0.099799 0.350078 0.712163 -0.503213
N8    N     N_3   0.883224 0.272803 0.670232 -0.485822
N9    N     N_3   0.211598 0.708034 0.071187 -0.427430
N10   N     N_3   0.181842 0.565110 0.771132 -0.454157
N11   N     N_3   0.339004 0.622855 0.464152 -0.480670
N12   N     N_R   0.194944 0.514650 0.153644 -0.431605
N13   N     N_R   0.595518 0.025937 0.446375 -0.205467
N14   N     N_R   0.547428 0.956346 0.439723 -0.213969
N15   N     N_R   0.649419 0.947410 0.532467 -0.230883
N16   N     N_R   0.694998 0.017351 0.539500 -0.222783
N17   N     N_3   0.377813 0.805145 0.625613 -0.485793
N18   N     N_3   0.129447 0.799584 0.674107 -0.410265
N19   N     N_3   0.927582 0.210686 0.307426 -0.445508
O1    O     O_2   0.898140 0.461210 0.359840 -0.454911
O2    O     O_2   0.224172 0.248996 0.529408 -0.482891
O3    O     O_3   0.147849 0.253863 0.638918 -0.566805
O4    O     O_3   0.138540 0.461940 0.430900 -0.492811
O5    O     O_3   0.557600 0.585010 0.531050 -0.470588
O6    O     O_2   0.379790 0.327560 0.468300 -0.462605
O7    O     O_3   0.567600 0.297992 0.375184 -0.615529
O8    O     O_2   0.416956 0.440945 0.706368 -0.446494
O9    O     O_3   0.540530 0.318312 0.691156 -0.586096
O10   O     O_2   0.003055 0.620909 0.866594 -0.564556
O11   O     O_2   0.921416 0.379873 0.853087 -0.612856
O12   O     O_3   0.598054 0.701620 0.622980 -0.658280
O13   O     O_2   0.136788 0.394752 0.143660 -0.575310
O14   O     O_2   0.260386 0.632931 0.155217 -0.585180
O15   O     O_3   0.654260 0.589640 0.397760 -0.499381
O16   O     O_2   0.767915 0.537374 0.292947 -0.498640
O17   O     O_3   0.057972 0.348313 0.343635 -0.626565
O18   O     O_3   0.683295 0.668799 0.298353 -0.625801
O19   O     O_2   0.809910 0.672460 0.531740 -0.446562
O20   O     O_3   0.065030 0.625960 0.427320 -0.475757
O21   O     O_2   0.948169 0.750659 0.459150 -0.467441
O22   O     O_2   0.896959 0.719790 0.637935 -0.568692
O23   O     O_3   0.100970 0.740606 0.359116 -0.574743
O24   O     O_R   0.915433 0.670228 0.722692 -0.797539
O25   O     O_2   0.531570 0.575292 0.708728 -0.582927
O26   O     O_R   0.669355 0.547244 0.625972 -0.722333
O27   O     O_2   0.911983 0.849932 0.304528 -0.578219
O28   O     O_R   0.828424 0.851313 0.398831 -0.742809
O29   O     O_2   0.741459 0.820079 0.792594 -0.559340
O30   O     O_R   0.701801 0.845283 0.701307 -0.696236
O31   O     O_2   0.330236 0.248297 0.765704 -0.540741
O32   O     O_R   0.155194 0.257648 0.840017 -0.692587
O33   O     O_2   0.363737 0.126026 0.483953 -0.583812
O34   O     O_2   0.291560 0.538810 0.640200 -0.425192
O35   O     O_R   0.429816 0.168347 0.398376 -0.737616
O36   O     O_2   0.017271 0.118116 0.599464 -0.594568
O37   O     O_R   0.026349 0.063087 0.505045 -0.716939
O38   O     O_3   0.051160 0.538120 0.569110 -0.510036
O39   O     O_3   0.535440 0.410410 0.602240 -0.442129
O40   O     O_3   0.152245 0.654124 0.650627 -0.620043
O41   O     O_3   0.632100 0.415050 0.468960 -0.469805
O42   O     O_3   0.124670 0.374100 0.572690 -0.473595
P1    P     P_3+3 0.069200 0.440380 0.368230 0.999482
P2    P     P_3+3 0.634560 0.662100 0.548650 1.017538
P3    P     P_3+3 0.097712 0.718980 0.431184 0.993145
P4    P     P_3+3 0.120500 0.559680 0.631780 1.003968
P5    P     P_3+3 0.095746 0.280351 0.570897 0.990386
P6    P     P_3+3 0.636869 0.583738 0.320712 0.920594
P7    P     P_3+3 0.559893 0.324949 0.451152 0.983377
P8    P     P_3+3 0.563558 0.407785 0.677275 1.043559

loop_
_geom_bond_atom_site_label_1
_geom_bond_atom_site_label_2
_ccdc_geom_bond_type
C42   C47   A    
C58   O31   D    
C61   O9    S    
C19   C24   D    
O18   P6    S    
C58   O32   S    
O4    P1    S    
Ba1   P2    S    
C1    H3    S    
H53   N7    S    
C55   O28   S    
C34   H2    S    
C5    C6    A    
C60   O37   S    
H33   N18   S    
C51   C52   S    
H35   N18   S    
C45   N8    S    
Ba1   O20   S    
C35   C36   D    
C20   P8    S    
H42   O28   S    
C32   C38   D    
C26   P6    S    
C3    O10   D    
Ba1   O5    S    
C33   C35   S    
O38   P4    S    
C32   C33   S    
O7    P7    S    
C36   C37   S    
C32   N11   S    
C56   H6    S    
C52   N3    S    
C30   N12   S    
C45   O3    S    
C56   C58   S    
C13   C14   A    
O41   P7    S    
C21   P4    S    
O5    P2    S    
O15   P6    S    
H44   N3    S    
Ba1   Ba2   S    
C18   O14   D    
C7    C11   A    
Ba2   O34   S    
C24   N1    S    
N13   N14   A    
C46   C60   S    
C62   H10   S    
C19   H18   S    
Ba2   O6    S    
C21   C31   D    
H60   N9    S    
C21   C22   D    
C49   O17   S    
H59   N9    S    
H66   N11   S    
C41   N14   A    
C17   O13   D    
H36   N19   S    
H32   N17   S    
C40   N18   S    
C37   H25   S    
C41   N15   A    
O1    P1    D    
C16   H4    S    
O20   P3    S    
C19   C20   S    
H65   N11   S    
C53   O24   S    
O3    P5    S    
C39   C47   S    
C60   O36   D    
C52   C57   S    
C51   C53   S    
C49   H34   S    
C4    C16   S    
C44   C46   A    
O21   P3    D    
C17   N12   Am   
Ba2   P4    S    
H47   N4    S    
C25   H16   S    
Ba1   P1    S    
H55   N8    S    
Ba2   O38   S    
H40   O24   S    
C37   C38   D    
C6    C7    A    
O6    P7    D    
C54   O25   D    
C39   N16   A    
C61   H8    S    
Ba1   O15   S    
C50   N19   S    
O40   P4    S    
H31   N17   S    
C8    H17   S    
C59   O35   S    
C29   H19   S    
C49   C50   S    
O34   P4    D    
Ba2   O41   S    
H58   O32   S    
C57   O29   D    
H38   N2    S    
C5    N1    Am   
C28   H30   S    
O12   P2    S    
C44   P5    S    
C13   H15   S    
C39   N13   A    
C50   H45   S    
Ba2   O5    S    
H64   O37   S    
C10   C18   A    
C23   O7    S    
C12   H1    S    
O19   P2    D    
H49   N5    S    
C61   H7    S    
C57   O30   S    
C40   N17   S    
C34   N6    S    
H37   N19   S    
C53   O22   D    
C43   P7    S    
C1    C12   S    
C27   C63   A    
Ba1   O38   S    
C51   O12   S    
C46   C47   A    
H50   N5    S    
C52   N4    S    
C6    C13   A    
H54   N7    S    
C18   N12   Am   
H52   N6    S    
H57   N8    S    
C2    C8    A    
C1    C55   S    
H41   O26   S    
C23   H68   S    
C42   C43   A    
H46   N3    S    
O42   P5    S    
C51   C54   S    
C3    N1    Am   
C20   C31   S    
C44   C48   A    
Ba2   O39   S    
H39   N2    S    
H43   O30   S    
C25   C30   A    
H63   O35   S    
C62   H13   S    
O8    P8    D    
C29   C30   A    
C56   H5    S    
C22   C24   S    
O23   P3    S    
C12   O18   S    
C34   H69   S    
C49   H23   S    
C55   O27   D    
C9    C10   A    
C4    H11   S    
Ba2   O42   S    
C11   C15   A    
C42   C59   S    
C27   P1    S    
C5    O11   D    
C45   N7    S    
Ba1   O19   S    
C4    H21   S    
C35   H24   S    
O9    P8    S    
C14   H14   S    
C16   H27   S    
Ba1   O4    S    
Ba1   O41   S    
C31   H22   S    
C36   C41   S    
C28   H29   S    
C63   H20   S    
N15   N16   A    
C45   C56   S    
O17   P1    S    
C14   C15   A    
C4    O23   S    
C43   C48   A    
C22   N10   S    
Ba2   O4    S    
C50   N2    S    
H61   N10   S    
C59   O33   D    
C15   C17   A    
O39   P8    S    
C26   C63   A    
H62   N10   S    
Ba1   O1    S    
C12   N5    S    
C8    C9    A    
C23   C34   S    
O16   P6    D    
C61   C62   S    
C28   O40   S    
C48   H26   S    
C2    C3    A    
C10   C11   A    
C40   H12   S    
C27   C29   A    
C38   P2    S    
C25   C26   A    
C16   H28   S    
C62   H9    S    
H48   N4    S    
C28   C40   S    
C2    C7    A    
C23   H67   S    
C9    N9    S    
O2    P5    D    
C1    H56   S    
C33   P3    S    
H51   N6    S    
C54   O26   S    
