data_mof_unit_64717.cif
_audit_creation_date              2013-03-05T15:40:59-0500
_audit_creation_method            fapswitch 2.2
_symmetry_space_group_name_H-M    P1
_symmetry_Int_Tables_number       1
_space_group_crystal_system       triclinic
_cell_length_a                    18.851788
_cell_length_b                    18.817729
_cell_length_c                    18.830679
_cell_angle_alpha                 109.41742
_cell_angle_beta                  109.815993
_cell_angle_gamma                 109.514413
_cell_volume                      5121.00860251

loop_
_atom_site_label
_atom_site_type_symbol
_atom_site_description
_atom_site_fract_x
_atom_site_fract_y
_atom_site_fract_z
_atom_type_partial_charge
O1    O     O_R   0.410160 0.358490 0.449530 -0.547412
O2    O     O_R   0.408940 0.460590 0.550490 -0.638540
C1    C     C_R   0.384169 0.380757 0.503300 0.993078
O3    O     O_R   0.592130 0.448950 0.541040 -0.609678
O4    O     O_R   0.590910 0.551050 0.642000 -0.635377
C2    C     C_R   0.623210 0.503654 0.620273 0.886817
Zn1   Zn    Zn3+2 0.500810 0.431830 0.432590 1.025384
Zn2   Zn    Zn3+2 0.499190 0.568170 0.567410 0.971931
O5    O     O_R   0.591060 0.539410 0.449510 -0.624579
O6    O     O_R   0.589840 0.641510 0.550470 -0.616688
O7    O     O_R   0.409090 0.448950 0.358000 -0.623861
O8    O     O_R   0.407870 0.551050 0.458960 -0.617151
C3    C     C_R   0.616823 0.618980 0.497595 0.925085
C4    C     C_R   0.377530 0.497310 0.378885 0.923235
C5    C     C_3   0.753795 0.488261 0.656832 -0.479084
H1    H     H_    0.791647 0.546976 0.655326 0.184448
H2    H     H_    0.718756 0.435138 0.588155 0.239011
C6    C     C_3   0.815492 0.471178 0.719482 0.449512
H3    H     H_    0.774158 0.646625 0.762066 0.141955
H4    H     H_    0.881429 0.641794 0.857547 0.164978
C7    C     C_3   0.744912 0.592565 0.773642 -0.342634
C8    C     C_3   0.645422 0.430593 0.703762 -0.381121
C9    C     C_3   0.690536 0.503789 0.687396 -0.015705
H5    H     H_    0.596315 0.438863 0.720432 0.182758
H6    H     H_    0.610128 0.365887 0.643609 0.240454
C10   C     C_3   0.807399 0.498875 0.804675 -0.109944
C11   C     C_3   0.817701 0.591992 0.842098 0.225536
C12   C     C_3   0.713757 0.432981 0.778958 -0.353470
H7    H     H_    0.703714 0.366138 0.758982 0.222773
H8    H     H_    0.703587 0.452499 0.835720 0.233574
H9    H     H_    0.701867 0.605055 0.798366 0.234427
C13   C     C_2   0.259404 0.173564 0.500381 0.215554
C14   C     C_2   0.182929 0.170790 0.484497 -0.499772
H10   H     H_    0.164301 0.208657 0.457257 0.148207
C15   C     C_2   0.320687 0.236514 0.489549 0.410458
C16   C     C_2   0.328453 0.315797 0.514229 -0.426127
H11   H     H_    0.295857 0.335659 0.548002 0.124056
C17   C     C_2   0.171925 0.492809 0.247950 -0.148653
C18   C     C_2   0.183881 0.509921 0.188125 -0.321347
H12   H     H_    0.109820 0.474514 0.245807 0.168027
H13   H     H_    0.248439 0.537738 0.195796 0.161235
C19   C     C_2   0.244900 0.504287 0.320944 -0.145449
C20   C     C_2   0.305402 0.488404 0.309409 -0.326205
H14   H     H_    0.246825 0.522184 0.382966 0.171290
H15   H     H_    0.298113 0.460965 0.244969 0.159983
C21   C     C_2   0.741261 0.820285 0.494371 -0.145816
C22   C     C_2   0.817794 0.824321 0.511445 -0.323024
H16   H     H_    0.725025 0.863845 0.475459 0.176717
H17   H     H_    0.838145 0.788139 0.540154 0.162913
C23   C     C_2   0.680037 0.759051 0.505564 -0.148004
C24   C     C_2   0.676047 0.682581 0.488950 -0.330131
H18   H     H_    0.636345 0.775154 0.523938 0.174888
H19   H     H_    0.712398 0.662382 0.460794 0.161766
O9    O     O_R   0.944170 0.358540 0.904780 -0.613052
O10   O     O_R   0.046300 0.460610 0.904690 -0.606385
C25   C     C_R   0.993687 0.380506 0.874772 1.013491
O11   O     O_R   0.851630 0.449030 0.902680 -0.610109
O12   O     O_R   0.953760 0.551100 0.902590 -0.598525
C26   C     C_R   0.874064 0.498800 0.872858 0.928850
Zn3   Zn    Zn3+2 0.926030 0.431910 0.994210 0.998022
Zn4   Zn    Zn3+2 0.062410 0.568220 0.994100 1.036382
O13   O     O_R   0.942140 0.539520 0.083620 -0.615962
O14   O     O_R   0.044270 0.641590 0.083530 -0.624902
O15   O     O_R   0.034680 0.449030 0.085720 -0.625127
O16   O     O_R   0.136800 0.551100 0.085630 -0.623282
C27   C     C_R   0.995765 0.619595 0.114346 0.911890
C28   C     C_R   0.115016 0.502262 0.116505 0.915169
O17   O     O_R   0.050590 0.090430 0.641090 -0.641868
O18   O     O_R   0.947260 0.090430 0.537750 -0.557460
C29   C     C_R   0.001860 0.121577 0.618202 0.966691
O19   O     O_R   0.142120 0.090460 0.551650 -0.570619
O20   O     O_R   0.038780 0.090460 0.448320 -0.618272
C30   C     C_R   0.118859 0.115259 0.496233 1.011489
Zn5   Zn    Zn3+2 0.069000 0.000000 0.569000 1.034166
Zn6   Zn    Zn3+2 0.931000 0.000000 0.431000 1.021262
O21   O     O_R   0.052740 0.909570 0.462250 -0.585738
O22   O     O_R   0.949410 0.909570 0.358910 -0.633341
O23   O     O_R   0.961220 0.909540 0.551680 -0.627970
O24   O     O_R   0.857880 0.909540 0.448350 -0.619511
C31   C     C_R   0.998608 0.878993 0.381670 0.947879
C32   C     C_R   0.881241 0.883375 0.502526 0.910828
C33   C     C_2   0.998980 0.257182 0.674483 0.483774
C34   C     C_2   0.011353 0.194786 0.686120 -0.372031
H20   H     H_    0.036143 0.200968 0.750358 0.110252
C35   C     C_2   0.009881 0.328700 0.748207 -0.208587
C36   C     C_2   0.985413 0.312659 0.802630 -0.328181
H21   H     H_    0.034792 0.393342 0.755631 0.208048
H22   H     H_    0.952238 0.246528 0.790190 0.150932
C37   C     C_2   0.009006 0.748636 0.324576 -0.136726
C38   C     C_2   0.989585 0.807364 0.312744 -0.300500
H23   H     H_    0.030931 0.751574 0.387321 0.171851
H24   H     H_    0.958174 0.798574 0.247836 0.159480
C39   C     C_2   0.995426 0.676056 0.250209 -0.148217
C40   C     C_2   0.005971 0.687864 0.187462 -0.307871
H25   H     H_    0.980235 0.614388 0.248732 0.165466
H26   H     H_    0.031653 0.752188 0.194163 0.164133
O25   O     O_3   0.812538 0.615682 0.918733 -0.762264
H27   H     H_    0.872210 0.643298 0.968595 0.328075
N1    N     N_R   0.280997 0.114554 0.522739 0.224690
O26   O     O_R   0.361072 0.142201 0.578738 -0.363601
O27   O     O_R   0.225774 0.031051 0.475733 -0.377644
O28   O     O_3   0.370252 0.215189 0.456006 -0.705333
H28   H     H_    0.350524 0.152563 0.435149 0.363943
O29   O     O_3   0.980806 0.256324 0.596545 -0.722800
H29   H     H_    0.973684 0.307262 0.601063 0.356880
N2    N     N_R   0.788953 0.377147 0.678738 0.209007
O30   O     O_R   0.833911 0.350595 0.721036 -0.392040
O31   O     O_R   0.719170 0.318653 0.602853 -0.380648
N3    N     N_R   0.905339 0.522312 0.738256 0.199891
O32   O     O_R   0.942294 0.606187 0.769283 -0.433846
O33   O     O_R   0.946148 0.483233 0.716268 -0.350403

loop_
_geom_bond_atom_site_label_1
_geom_bond_atom_site_label_2
_geom_bond_distance
_ccdc_geom_bond_type
C5    C6    1.555494 S    
O10   C25   1.277100 A    
C39   C40   1.337663 D    
C13   C15   1.478385 S    
C15   C16   1.345443 D    
C6    C10   1.591114 S    
C6    N3    1.482797 S    
C15   O28   1.383912 S    
O25   H27   0.992964 S    
C18   H13   1.086730 S    
O9    Zn3   2.004760 S    
C35   C36   1.336887 D    
Zn1   O7    2.023057 S    
C7    H9    1.114134 S    
C10   C11   1.569552 S    
Zn5   O21   1.997461 S    
Zn3   O13   2.000757 S    
C16   H11   1.087243 S    
H3    C7    1.113828 S    
C17   C19   1.466491 S    
O3    Zn1   2.011567 S    
C17   C18   1.337325 D    
O7    C4    1.272480 A    
C36   H22   1.086977 S    
O11   C26   1.271791 A    
N2    O30   1.300840 A    
O17   Zn5   2.009241 S    
C5    H1    1.112910 S    
Zn1   O5    1.999237 S    
Zn4   O14   2.004762 S    
O5    C3    1.269762 A    
C3    C24   1.437186 S    
C25   C36   1.438726 S    
C11   O25   1.409671 S    
C34   H20   1.087202 S    
O16   C28   1.271313 A    
C8    H6    1.113138 S    
C23   H18   1.086386 S    
C37   H23   1.086318 S    
C10   C26   1.461621 S    
C27   C40   1.436047 S    
O12   Zn4   2.016312 S    
C5    C9    1.557298 S    
C7    C11   1.537730 S    
O14   C27   1.269164 A    
C39   H25   1.086527 S    
C8    C12   1.532598 S    
C37   C39   1.464112 S    
O18   C29   1.283521 A    
C19   H14   1.086426 S    
O20   Zn6   2.000816 S    
O29   H29   0.991751 S    
C23   C24   1.336647 D    
C21   H16   1.086383 S    
C35   H21   1.086523 S    
O9    C25   1.271505 A    
O13   C27   1.278024 A    
O15   C28   1.279938 A    
C22   H17   1.087026 S    
O24   C32   1.285055 A    
O11   Zn3   2.018352 S    
O12   C26   1.270733 A    
O1    C1    1.277600 A    
C6    N2    1.488483 S    
O19   Zn5   2.002995 S    
C20   H15   1.086696 S    
C38   H24   1.086895 S    
N1    O26   1.301032 A    
Zn2   O8    2.011567 S    
C14   H10   1.087323 S    
C40   H26   1.086711 S    
C29   C34   1.440208 S    
Zn6   O22   2.009245 S    
C14   C30   1.446012 S    
N1    O27   1.301509 A    
O8    C4    1.280007 A    
C7    C9    1.549975 S    
C8    H5    1.113832 S    
O3    C2    1.269729 A    
C19   C20   1.337894 D    
O19   C30   1.284247 A    
O22   C31   1.275122 A    
C5    H2    1.108228 S    
C21   C22   1.336722 D    
C12   H7    1.112436 S    
O1    Zn1   2.003360 S    
C18   C28   1.443512 S    
Zn2   O6    2.003358 S    
O2    Zn2   1.999238 S    
O21   C31   1.285401 A    
O20   C30   1.279349 A    
O6    C3    1.279310 A    
O4    Zn2   2.023059 S    
H4    C11   1.111665 S    
C33   C35   1.469786 S    
C21   C23   1.463628 S    
C10   C12   1.564330 S    
C13   N1    1.439686 S    
Zn3   O15   2.016314 S    
C13   C14   1.348195 D    
N3    O33   1.302156 A    
O2    C1    1.275513 A    
N3    O32   1.301585 A    
C17   H12   1.086427 S    
O23   C32   1.275646 A    
O4    C2    1.273875 A    
N2    O31   1.302459 A    
C1    C16   1.447718 S    
C2    C9    1.454836 S    
O10   Zn4   2.000759 S    
C12   H8    1.113146 S    
O18   Zn6   1.997460 S    
C22   C32   1.437369 S    
C31   C38   1.436757 S    
O28   H28   0.990862 S    
Zn4   O16   2.018266 S    
O17   C29   1.277667 A    
C33   C34   1.341825 D    
Zn5   O23   2.000814 S    
C33   O29   1.382448 S    
C8    C9    1.546863 S    
C24   H19   1.087012 S    
C37   C38   1.335577 D    
Zn6   O24   2.002996 S    
C4    C20   1.443763 S    
