data_mof_unit_29362.cif
_audit_creation_date              2012-12-11T15:54:34-0500
_audit_creation_method            fapswitch 2.2
_symmetry_space_group_name_H-M    P1
_symmetry_Int_Tables_number       1
_space_group_crystal_system       triclinic
_cell_length_a                    6.917971
_cell_length_b                    14.69142
_cell_length_c                    16.021918
_cell_angle_alpha                 89.927979
_cell_angle_beta                  89.300188
_cell_angle_gamma                 90.218731
_cell_volume                      1628.25000159

loop_
_atom_site_label
_atom_site_type_symbol
_atom_type_description
_atom_site_fract_x
_atom_site_fract_y
_atom_site_fract_z
_atom_type_partial_charge
O1    O     O_R   0.638180 0.333920 0.163320 -0.537180
O2    O     O_R   0.361820 0.666080 0.836680 -0.537180
O3    O     O_R   0.308470 0.344960 0.336080 -0.531737
O4    O     O_R   0.691530 0.655040 0.663920 -0.531738
O5    O     O_R   0.138140 0.166110 0.336680 -0.515494
O6    O     O_R   0.861860 0.833890 0.663320 -0.515494
C1    C     C_R   0.476674 0.368726 0.363800 0.718883
C2    C     C_R   0.523326 0.631273 0.636201 0.718882
O7    O     O_R   0.308460 0.344950 0.163930 -0.549138
O8    O     O_R   0.691540 0.655050 0.836070 -0.549138
O9    O     O_R   0.138140 0.166100 0.163310 -0.538545
O10   O     O_R   0.861860 0.833900 0.836690 -0.538546
C3    C     C_R   0.479266 0.368440 0.136132 0.696749
C4    C     C_R   0.520734 0.631560 0.863868 0.696748
O11   O     O_R   0.638180 0.333930 0.336700 -0.542570
O12   O     O_R   0.361820 0.666070 0.663300 -0.542568
O13   O     O_3   0.471670 0.191340 0.250000 -0.368238
O14   O     O_3   0.528330 0.808660 0.750000 -0.368239
V1    V     V_3+5 0.196830 0.260900 0.250000 1.421103
V2    V     V_3+5 0.803170 0.739100 0.750000 1.421102
O15   O     O_R   0.808420 0.155070 0.163920 -0.550243
O16   O     O_R   0.191580 0.844930 0.836080 -0.550245
C5    C     C_R   0.978718 0.134423 0.133716 0.689685
C6    C     C_R   0.021282 0.865577 0.866284 0.689685
O17   O     O_R   0.808420 0.155080 0.336070 -0.547003
O18   O     O_R   0.191580 0.844920 0.663930 -0.547003
C7    C     C_R   0.976347 0.133578 0.365270 0.771068
C8    C     C_R   0.023653 0.866423 0.634731 0.771077
V3    V     V_3+5 0.696830 0.239130 0.250000 1.404347
V4    V     V_3+5 0.303170 0.760870 0.750000 1.404346
O19   O     O_3   0.971850 0.308690 0.250010 -0.370852
O20   O     O_3   0.028150 0.691310 0.749990 -0.370851
C9    C     C_R   0.094328 0.185756 0.537519 0.151335
C10   C     C_R   0.905681 0.814245 0.462481 0.151325
C11   C     C_R   0.169667 0.207114 0.615982 -0.142248
C12   C     C_R   0.830363 0.792886 0.384015 -0.142243
C13   C     C_R   0.193038 0.140847 0.676517 0.222117
C14   C     C_R   0.807009 0.859151 0.323477 0.222115
C15   C     C_R   0.138954 0.051370 0.659280 -0.190327
C16   C     C_R   0.861070 0.948630 0.340718 -0.190328
C17   C     C_R   0.069714 0.025320 0.579763 -0.019025
C18   C     C_R   0.930293 0.974681 0.420238 -0.019018
C19   C     C_R   0.050640 0.093071 0.516329 0.053304
C20   C     C_R   0.949364 0.906930 0.483673 0.053312
C21   C     C_R   0.016196 0.933274 0.564451 -0.150401
C22   C     C_R   0.983804 0.066728 0.435550 -0.150402
H1    H     H_    0.205016 0.276984 0.631419 0.134668
H2    H     H_    0.795028 0.723015 0.368577 0.134672
H3    H     H_    0.151949 0.002817 0.709516 0.111966
H4    H     H_    0.848078 0.997183 0.290483 0.111963
C23   C     C_R   0.161397 0.993927 0.947344 -0.198577
C24   C     C_R   0.838603 0.006073 0.052656 -0.198599
H5    H     H_    0.286659 0.989971 0.906279 0.124829
H6    H     H_    0.713341 0.010029 0.093721 0.124834
C25   C     C_R   0.156999 0.060619 0.010110 0.166914
C26   C     C_R   0.843001 0.939381 0.989890 0.166914
C27   C     C_R   0.993137 0.066655 0.064461 -0.089604
C28   C     C_R   0.006863 0.933344 0.935539 -0.089603
C29   C     C_R   0.332126 0.498277 0.451137 0.202490
C30   C     C_R   0.667874 0.501722 0.548864 0.202488
C31   C     C_R   0.347898 0.558068 0.518631 -0.153586
C32   C     C_R   0.652101 0.441930 0.481370 -0.153587
H7    H     H_    0.227836 0.602126 0.532191 0.141093
H8    H     H_    0.772162 0.397871 0.467811 0.141092
C33   C     C_R   0.514534 0.562450 0.567726 -0.161646
C34   C     C_R   0.485466 0.437548 0.432275 -0.161642
C35   C     C_R   0.339094 0.443758 0.011676 -0.188406
C36   C     C_R   0.660906 0.556242 0.988323 -0.188407
H9    H     H_    0.214944 0.399262 0.019787 0.125562
H10   H     H_    0.785056 0.600738 0.980213 0.125562
C37   C     C_R   0.343194 0.505380 0.944511 0.152861
C38   C     C_R   0.656806 0.494620 0.055489 0.152860
C39   C     C_R   0.506738 0.563020 0.932499 -0.093387
C40   C     C_R   0.493262 0.436979 0.067501 -0.093387
N1    N     N_3   0.734706 0.833488 0.243199 -0.662769
H11   H     H_    0.731035 0.889769 0.203325 0.222617
H12   H     H_    0.591472 0.812125 0.251714 0.227948
N2    N     N_3   0.265388 0.166507 0.756789 -0.662756
H13   H     H_    0.269107 0.110220 0.796657 0.222606
H14   H     H_    0.408612 0.187878 0.748257 0.227945
C41   C     C_3   0.173771 0.505771 0.886028 -0.719156
H15   H     H_    0.225189 0.497049 0.820599 0.200747
H16   H     H_    0.070309 0.449610 0.900022 0.194091
H17   H     H_    0.093086 0.570548 0.892401 0.216911
C42   C     C_3   0.826228 0.494230 0.113972 -0.719156
H18   H     H_    0.774809 0.502952 0.179401 0.200747
H19   H     H_    0.906914 0.429453 0.107600 0.216912
H20   H     H_    0.929690 0.550390 0.099978 0.194092
N3    N     N_3   0.049911 0.259622 0.482502 -0.653240
H21   H     H_    0.899364 0.262619 0.480411 0.207438
H22   H     H_    0.097150 0.321839 0.506594 0.226097
N4    N     N_3   0.950094 0.740380 0.517501 -0.653236
H23   H     H_    0.100643 0.737375 0.519584 0.207442
H24   H     H_    0.902828 0.678164 0.493414 0.226096
C43   C     C_3   0.326759 0.125279 0.015199 -0.727614
H25   H     H_    0.430401 0.115941 0.962410 0.191972
H26   H     H_    0.275670 0.196805 0.012928 0.197021
H27   H     H_    0.407529 0.113078 0.073536 0.216940
C44   C     C_3   0.673241 0.874721 0.984801 -0.727625
H28   H     H_    0.569600 0.884058 0.037590 0.191971
H29   H     H_    0.592471 0.886922 0.926464 0.216942
H30   H     H_    0.724331 0.803194 0.987072 0.197022
N5    N     N_3   0.162110 0.504604 0.401247 -0.673247
H31   H     H_    0.203480 0.514557 0.338912 0.230409
H32   H     H_    0.082540 0.444414 0.406792 0.253075
N6    N     N_3   0.837891 0.495395 0.598754 -0.673249
H33   H     H_    0.796523 0.485443 0.661089 0.230409
H34   H     H_    0.917459 0.555586 0.593207 0.253073

loop_
_geom_bond_atom_site_label_1
_geom_bond_atom_site_label_2
_ccdc_geom_bond_type
C14   C16   A    
O13   V3    S    
C43   H25   S    
O4    C2    A    
V1    O19   S    
C38   C42   S    
C43   H27   S    
C15   C17   A    
C42   H18   S    
O9    V1    S    
C11   C13   A    
O3    C1    A    
C29   C34   A    
N2    H14   S    
N6    H33   S    
O12   V4    S    
C30   C32   A    
C18   C22   A    
C31   H7    S    
O7    C3    A    
C32   H8    S    
O13   V1    S    
O5    C7    A    
O7    V1    S    
O6    C8    A    
O8    V2    S    
O3    V1    S    
O14   V4    S    
N3    H22   S    
O14   V2    S    
C16   C18   A    
C11   H1    S    
C2    C33   S    
C2    O12   A    
C17   C19   A    
C18   C20   A    
N4    H24   S    
C41   H16   S    
C24   H6    S    
O11   V3    S    
C14   N1    S    
C42   H19   S    
O17   V3    S    
C13   C15   A    
C8    C21   S    
C29   C31   A    
C32   C34   A    
C9    C19   A    
C4    C39   S    
C10   C20   A    
C38   C40   A    
O8    C4    A    
C35   C40   A    
N2    H13   S    
C1    O11   A    
C23   C25   A    
C36   C39   A    
O15   V3    S    
C41   H15   S    
C23   H5    S    
N1    H11   S    
C9    N3    S    
C44   H28   S    
C36   C38   A    
O10   V2    S    
O1    V3    S    
N5    H32   S    
C23   C28   A    
N1    H12   S    
C7    C22   S    
C25   C43   S    
C15   H3    S    
C30   C33   A    
O18   V4    S    
C25   C27   A    
O16   C6    A    
O1    C3    A    
C12   C14   A    
C41   H17   S    
C30   N6    S    
C20   C21   A    
C37   C39   A    
V2    O20   S    
C42   H20   S    
C5    C27   S    
O16   V4    S    
C44   H29   S    
C43   H26   S    
O5    V1    S    
O17   C7    A    
O6    V2    S    
C13   N2    S    
O10   C6    A    
O18   C8    A    
O2    V4    S    
C29   N5    S    
O15   C5    A    
V3    O19   S    
C1    C34   S    
V4    O20   S    
N6    H34   S    
C16   H4    S    
O9    C5    A    
N4    H23   S    
C9    C11   A    
C10   C12   A    
C26   C28   A    
C12   H2    S    
C35   C37   A    
O2    C4    A    
C19   C22   A    
C10   N4    S    
C24   C27   A    
O4    V2    S    
C31   C33   A    
C44   H30   S    
C3    C40   S    
C6    C28   S    
N5    H31   S    
C36   H10   S    
C17   C21   A    
C26   C44   S    
C35   H9    S    
N3    H21   S    
C24   C26   A    
C37   C41   S    
