data_mof_unit_15955.cif
_audit_creation_date              2012-12-10T19:00:45-0500
_audit_creation_method            fapswitch 2.2
_symmetry_space_group_name_H-M    P1
_symmetry_Int_Tables_number       1
_space_group_crystal_system       triclinic
_cell_length_a                    14.980086
_cell_length_b                    10.833217
_cell_length_c                    9.620961
_cell_angle_alpha                 90.615069
_cell_angle_beta                  90.892533
_cell_angle_gamma                 91.790951
_cell_volume                      1560.26342324

loop_
_atom_site_label
_atom_site_type_symbol
_atom_type_description
_atom_site_fract_x
_atom_site_fract_y
_atom_site_fract_z
_atom_type_partial_charge
C1    C     C_R   0.495198 0.262503 0.498876 0.833212
C2    C     C_R   0.909452 0.611331 0.547077 -0.078800
C3    C     C_R   0.947545 0.280296 0.447749 0.417005
C4    C     C_R   0.039545 0.284236 0.427095 0.400312
C5    C     C_R   0.090423 0.393155 0.460310 -0.059685
C6    C     C_R   0.047042 0.501504 0.503698 -0.010103
C7    C     C_R   0.097696 0.610320 0.539654 -0.001993
C8    C     C_R   0.054239 0.717392 0.583904 0.363175
C9    C     C_R   0.961336 0.715247 0.595548 0.302637
C10   C     C_R   0.183933 0.394768 0.457753 -0.141350
C11   C     C_R   0.232973 0.500716 0.497133 -0.017693
C12   C     C_R   0.329223 0.499402 0.499105 0.769304
C13   C     C_R   0.191029 0.607018 0.539047 -0.198501
C14   C     C_R   0.482574 0.065910 0.622194 -0.057427
C15   C     C_R   0.480159 0.129143 0.497094 -0.211387
C16   C     C_R   0.457407 0.061166 0.374164 0.388358
C17   C     C_R   0.450975 0.931701 0.377422 0.382433
C18   C     C_R   0.477544 0.869467 0.500201 -0.274121
C19   C     C_R   0.484455 0.938973 0.623346 -0.019669
C20   C     C_3   0.550114 0.943152 0.742994 0.828252
C21   C     C_3   0.544030 0.083185 0.744788 -0.517726
C22   C     C_R   0.578462 0.501967 0.074105 0.062337
C23   C     C_R   0.494454 0.737261 0.500286 0.891247
C24   C     C_R   0.424409 0.469272 0.069077 0.351333
C25   C     C_R   0.424003 0.476728 0.922115 -0.055383
C26   C     C_R   0.577948 0.498675 0.928255 0.134163
C27   C     C_3   0.659279 0.578982 0.917505 0.130857
C28   C     C_3   0.659092 0.588933 0.076368 0.386271
C29   C     C_R   0.670781 0.499843 0.501276 0.856516
C30   C     C_R   0.815637 0.613057 0.530558 0.276187
C31   C     C_R   0.767387 0.502042 0.506093 -0.087324
C32   C     C_R   0.810200 0.391805 0.484683 -0.213974
C33   C     C_R   0.903360 0.389801 0.482731 -0.034909
C34   C     C_R   0.953301 0.500946 0.511193 -0.050970
Cu1   Cu    Cu3+1 0.500000 0.499980 0.640670 1.023652
Cu2   Cu    Cu3+1 0.500000 0.500020 0.359330 1.057386
H1    H     H_    0.509206 0.120675 0.836554 0.204574
H2    H     H_    0.607397 0.133414 0.718691 0.194280
H3    H     H_    0.362793 0.455529 0.864839 0.177104
H4    H     H_    0.715761 0.528149 0.872386 0.118906
H5    H     H_    0.769230 0.309961 0.461013 0.151046
H6    H     H_    0.220225 0.313073 0.431679 0.161204
H7    H     H_    0.232642 0.685364 0.573256 0.134527
N1    N     N_R   0.500570 0.500930 0.147930 -0.195370
N2    N     N_R   0.500570 0.500890 0.852020 -0.169449
O1    O     O_R   0.500000 0.319640 0.618810 -0.585135
O2    O     O_R   0.500010 0.319680 0.381230 -0.560438
O3    O     O_R   0.370250 0.499950 0.618800 -0.604486
O4    O     O_R   0.370260 0.499990 0.381220 -0.545937
O5    O     O_R   0.499990 0.680320 0.618770 -0.505019
O6    O     O_R   0.500000 0.680360 0.381190 -0.541393
O7    O     O_R   0.629740 0.500010 0.618780 -0.577268
O8    O     O_R   0.629750 0.500050 0.381200 -0.535996
Br1   Br    Br    0.752959 0.763620 0.498817 -0.334083
O9    O     O_3   0.422339 0.870341 0.257829 -0.628378
H8    H     H_    0.384691 0.798276 0.285816 0.326620
O10   O     O_3   0.518903 0.884771 0.863748 -0.625833
H9    H     H_    0.456896 0.910787 0.879965 0.325675
O11   O     O_3   0.634623 0.904828 0.704701 -0.645413
H10   H     H_    0.676918 0.936537 0.778106 0.351353
Br2   Br    Br    0.320962 0.382376 0.137469 -0.455119
O12   O     O_3   0.642531 0.689441 0.850560 -0.580175
H11   H     H_    0.702226 0.730480 0.841096 0.369204
Br3   Br    Br    0.766944 0.518743 0.152035 -0.467232
Br4   Br    Br    0.636986 0.753002 0.150485 -0.265174
O13   O     O_3   0.902637 0.168320 0.426342 -0.617727
H12   H     H_    0.856065 0.159720 0.497795 0.333715
O14   O     O_3   0.077600 0.177635 0.379521 -0.636642
H13   H     H_    0.125264 0.201094 0.313835 0.340120
O15   O     O_3   0.100819 0.824869 0.621472 -0.648735
H14   H     H_    0.147711 0.840179 0.551762 0.331145
Br5   Br    Br    0.913316 0.848652 0.703355 -0.324740
O16   O     O_3   0.440615 0.118601 0.250327 -0.635584
H15   H     H_    0.499920 0.145615 0.215274 0.342234

loop_
_geom_bond_atom_site_label_1
_geom_bond_atom_site_label_2
_ccdc_geom_bond_type
C8    C9    A    
O9    H8    S    
C24   Br2   S    
C10   H6    S    
O16   H15   S    
C19   C20   S    
C9    Br5   S    
C12   O3    A    
C12   O4    A    
C7    C8    A    
C30   Br1   S    
C26   C27   S    
C14   C21   S    
C30   C31   A    
C1    O1    A    
C3    C33   A    
C15   C16   A    
Cu2   O2    S    
C18   C19   A    
Cu2   O8    S    
C26   N2    A    
O14   H13   S    
C22   N1    A    
C21   H2    S    
Cu1   Cu2   S    
C16   C17   A    
C32   H5    S    
O15   H14   S    
C1    C15   S    
C17   O9    S    
C2    C34   A    
O13   H12   S    
O11   H10   S    
C22   C28   S    
Cu1   O3    S    
C17   C18   A    
C18   C23   S    
C24   C25   A    
C4    O14   S    
C1    O2    A    
C23   O5    A    
C6    C34   A    
O12   H11   S    
C27   O12   S    
C23   O6    A    
C31   C32   A    
C27   H4    S    
Cu1   O5    S    
C33   C34   A    
C20   O11   S    
Cu2   O6    S    
C28   Br3   S    
C24   N1    A    
Cu2   N1    S    
C3    O13   S    
C3    C4    A    
Cu1   N2    S    
C25   N2    A    
C13   H7    S    
C14   C19   A    
C4    C5    A    
C16   O16   S    
C11   C12   S    
C6    C7    A    
Cu1   O1    S    
C8    O15   S    
C2    C30   A    
C32   C33   A    
C28   Br4   S    
C5    C10   A    
C29   C31   S    
C25   H3    S    
C11   C13   A    
O10   H9    S    
C5    C6    A    
C29   O8    A    
C10   C11   A    
C7    C13   A    
C21   H1    S    
C20   C21   S    
C22   C26   A    
Cu1   O7    S    
C14   C15   A    
C20   O10   S    
C2    C9    A    
Cu2   O4    S    
C27   C28   S    
C29   O7    A    
