data_mof_unit_51767.cif
_audit_creation_date              2013-03-05T15:55:10-0500
_audit_creation_method            fapswitch 2.2
_symmetry_space_group_name_H-M    P1
_symmetry_Int_Tables_number       1
_space_group_crystal_system       triclinic
_cell_length_a                    14.495518
_cell_length_b                    16.144776
_cell_length_c                    6.910922
_cell_angle_alpha                 89.999451
_cell_angle_beta                  97.718536
_cell_angle_gamma                 90.001223
_cell_volume                      1602.68815401

loop_
_atom_site_label
_atom_site_type_symbol
_atom_site_description
_atom_site_fract_x
_atom_site_fract_y
_atom_site_fract_z
_atom_type_partial_charge
O1    O     O_R   0.831700 0.662810 0.581550 -0.581703
O2    O     O_R   0.168300 0.337190 0.418450 -0.586503
O3    O     O_R   0.168300 0.162810 0.418450 -0.581726
O4    O     O_R   0.831700 0.837190 0.581550 -0.586499
O5    O     O_R   0.842890 0.834390 0.255500 -0.568428
O6    O     O_R   0.157110 0.165610 0.744500 -0.553334
O7    O     O_R   0.157110 0.334390 0.744500 -0.568430
O8    O     O_R   0.842890 0.665610 0.255500 -0.553313
O9    O     O_R   0.661690 0.835580 0.024130 -0.622508
O10   O     O_R   0.338310 0.164420 0.975870 -0.622050
O11   O     O_R   0.338310 0.335580 0.975870 -0.622371
O12   O     O_R   0.661690 0.664420 0.024130 -0.621921
C1    C     C_R   0.865944 0.864376 0.429766 0.984192
C2    C     C_R   0.133949 0.135700 0.570179 1.024658
C3    C     C_R   0.134056 0.364376 0.570232 0.984198
C4    C     C_R   0.866051 0.635700 0.429822 1.024740
C5    C     C_R   0.065432 0.065960 0.540242 -0.355498
C6    C     C_R   0.934328 0.934202 0.459592 -0.348864
C7    C     C_R   0.934569 0.565961 0.459760 -0.355532
C8    C     C_R   0.065671 0.434202 0.540406 -0.348866
H1    H     H_    0.127215 0.016185 0.297444 0.194216
H2    H     H_    0.872490 0.983988 0.702300 0.173515
H3    H     H_    0.872791 0.516186 0.702569 0.194247
H4    H     H_    0.127505 0.483987 0.297688 0.173496
C9    C     C_R   0.007185 0.944968 0.344444 0.374111
C10   C     C_R   0.992511 0.055242 0.655290 0.388348
C11   C     C_R   0.992817 0.444968 0.655560 0.374099
C12   C     C_R   0.007488 0.555242 0.344705 0.388364
O13   O     O_3   0.687240 0.750000 0.366320 -0.294182
O14   O     O_3   0.312760 0.250000 0.633680 -0.294128
V1    V     V_3+5 0.757720 0.750000 0.115230 1.281017
V2    V     V_3+5 0.242280 0.250000 0.884770 1.281026
O15   O     O_R   0.650500 0.664000 0.690740 -0.564627
O16   O     O_R   0.349500 0.336000 0.309260 -0.547246
O17   O     O_R   0.349500 0.164000 0.309260 -0.564625
O18   O     O_R   0.650500 0.836000 0.690740 -0.547272
C13   C     C_R   0.625006 0.638175 0.855765 0.901307
C14   C     C_R   0.370840 0.364869 0.143770 0.859920
C15   C     C_R   0.374994 0.138179 0.144235 0.901347
C16   C     C_R   0.629159 0.864865 0.856229 0.859861
C17   C     C_R   0.071565 0.009794 0.386623 -0.113893
C18   C     C_R   0.928147 0.990392 0.613134 -0.153301
C19   C     C_R   0.928439 0.509795 0.613384 -0.113841
C20   C     C_R   0.071850 0.490392 0.386859 -0.153348
V3    V     V_3+5 0.735670 0.750000 0.607790 1.284923
V4    V     V_3+5 0.264330 0.250000 0.392210 1.284960
O19   O     O_3   0.806150 0.750000 0.906560 -0.212204
O20   O     O_3   0.193850 0.250000 0.093440 -0.212225
C21   C     C_2   0.555004 0.928712 0.860278 0.055614
C22   C     C_2   0.447465 0.071770 0.144211 0.041352
C23   C     C_2   0.444985 0.428733 0.139716 0.055433
C24   C     C_2   0.552549 0.571746 0.855802 0.041198
C25   C     C_2   0.569704 0.995199 0.986183 0.012970
C26   C     C_2   0.500073 0.062723 0.992706 0.016378
C27   C     C_2   0.430250 0.495236 0.013860 0.013225
C28   C     C_2   0.499875 0.562765 0.007227 0.016377
N1    N     N_R   0.019133 0.889613 0.187880 0.241329
O21   O     O_R   0.098027 0.851148 0.188598 -0.302906
O22   O     O_R   0.962080 0.893556 0.026006 -0.376914
N2    N     N_R   0.980472 0.110650 0.811715 0.237439
O23   O     O_R   0.901433 0.148868 0.811092 -0.336177
O24   O     O_R   0.037565 0.106872 0.973553 -0.369804
N3    N     N_R   0.980871 0.389615 0.812131 0.241334
O25   O     O_R   0.901977 0.351149 0.811422 -0.302856
O26   O     O_R   0.037927 0.393559 0.973998 -0.376927
N4    N     N_R   0.019527 0.610649 0.188274 0.237437
O27   O     O_R   0.098572 0.648856 0.188871 -0.336247
O28   O     O_R   0.962425 0.606875 0.026447 -0.369801
N5    N     N_3   0.495995 0.121203 0.834851 -0.171860
H5    H     H_    0.503052 0.181420 0.890640 0.134314
H6    H     H_    0.433038 0.114492 0.743122 0.196272
N6    N     N_3   0.660423 0.011471 0.091927 -0.172461
H7    H     H_    0.709928 0.010610 0.994895 0.110935
H8    H     H_    0.677158 0.966028 0.198319 0.165903
N7    N     N_3   0.503861 0.621341 0.164866 -0.172078
H9    H     H_    0.496834 0.681524 0.108866 0.134201
H10   H     H_    0.566777 0.614679 0.256752 0.196173
N8    N     N_3   0.339503 0.511517 0.908256 -0.172591
H11   H     H_    0.290039 0.510649 0.005381 0.110883
H12   H     H_    0.322723 0.466083 0.801860 0.165842
N9    N     N_R   0.455954 0.013556 0.302976 0.260224
O29   O     O_R   0.537320 0.990896 0.389193 -0.396308
O30   O     O_R   0.381865 0.990885 0.376478 -0.316312
N10   N     N_R   0.465038 0.911951 0.749100 0.281381
O31   O     O_R   0.456540 0.851975 0.622051 -0.312910
O32   O     O_R   0.389470 0.945937 0.794788 -0.340378
N11   N     N_R   0.544168 0.513447 0.697198 0.260268
O33   O     O_R   0.462847 0.490382 0.611491 -0.396092
O34   O     O_R   0.618279 0.490926 0.623577 -0.316298
N12   N     N_R   0.534965 0.411981 0.250847 0.281408
O35   O     O_R   0.543509 0.351943 0.377732 -0.312778
O36   O     O_R   0.610504 0.446073 0.205321 -0.340302

loop_
_geom_bond_atom_site_label_1
_geom_bond_atom_site_label_2
_geom_bond_distance
_ccdc_geom_bond_type
N4    O28   1.300359 A    
C27   C28   1.490521 S    
N3    O26   1.300367 A    
O15   V3    1.992646 S    
C12   N4    1.431788 S    
N11   O33   1.300571 A    
N9    O29   1.300454 A    
N12   O35   1.301774 A    
C25   C26   1.490469 S    
O2    V4    2.004988 S    
C22   C26   1.383343 D    
C1    C6    1.497012 S    
C5    C10   1.416045 A    
C21   N10   1.447447 S    
N10   O32   1.301375 A    
C6    C18   1.408021 A    
C23   N12   1.447463 S    
N8    H12   1.043957 S    
N1    O22   1.300370 A    
C16   C21   1.492277 S    
O12   C13   1.284510 A    
H3    C19   1.083856 S    
N2    O24   1.300357 A    
O4    C1    1.295846 A    
N5    H6    1.044526 S    
C8    C20   1.408021 A    
O16   V4    1.992646 S    
O5    C1    1.299378 A    
O7    C3    1.299382 A    
N4    O27   1.300797 A    
O8    C4    1.299467 A    
C28   N7    1.437939 S    
V1    O19   1.686543 S    
V2    O20   1.686543 S    
C2    C5    1.497234 S    
C6    C9    1.415816 A    
C9    N1    1.431701 S    
N9    O30   1.300737 A    
C7    C19   1.408062 A    
O4    V3    2.004942 S    
V3    O19   2.177251 S    
C3    C8    1.497040 S    
V4    O20   2.177253 S    
O18   C16   1.309935 A    
N10   O31   1.301798 A    
N6    H8    1.043950 S    
C9    C17   1.406471 A    
C13   C24   1.501128 S    
N8    H11   1.045985 S    
C14   C23   1.492339 S    
C12   C20   1.406598 A    
O9    C16   1.282708 A    
O15   C13   1.313117 A    
O13   V3    1.721329 S    
O10   C15   1.284489 A    
O11   C14   1.282726 A    
O17   C15   1.313112 A    
N7    H9    1.045783 S    
C7    C12   1.416056 A    
C11   C19   1.406483 A    
O6    C2    1.299464 A    
N12   O36   1.301322 A    
O18   V3    1.992691 S    
O1    C4    1.295879 A    
O2    C3    1.295855 A    
N7    H10   1.044516 S    
O3    C2    1.295869 A    
C11   N3    1.431701 S    
H1    C17   1.083856 S    
O11   V2    2.001896 S    
N11   O34   1.300768 A    
O12   V1    2.001897 S    
H4    C20   1.083905 S    
C10   C18   1.406586 A    
C27   N8    1.440219 S    
O7    V2    1.999696 S    
O16   C14   1.309945 A    
O8    V1    1.999698 S    
O14   V4    1.721329 S    
C24   N11   1.437468 S    
N6    H7    1.045980 S    
C8    C11   1.415823 A    
O3    V4    2.004945 S    
O13   V1    2.128638 S    
O14   V2    2.128638 S    
C25   N6    1.440204 S    
O1    V3    2.004987 S    
N1    O21   1.300777 A    
H2    C18   1.083903 S    
C26   N5    1.437953 S    
C4    C7    1.497263 S    
C21   C25   1.380199 D    
C23   C27   1.380218 D    
N5    H5    1.045790 S    
C5    C17   1.408059 A    
O9    V1    2.001929 S    
N3    O25   1.300768 A    
O10   V2    2.001930 S    
C15   C22   1.501059 S    
O6    V2    1.999674 S    
N2    O23   1.300794 A    
O17   V4    1.992691 S    
C10   N2    1.431784 S    
C24   C28   1.383395 D    
C22   N9    1.437375 S    
O5    V1    1.999673 S    
