data_mof_unit_28276.cif
_audit_creation_date              2012-12-10T18:54:32-0500
_audit_creation_method            fapswitch 2.2
_symmetry_space_group_name_H-M    P1
_symmetry_Int_Tables_number       1
_space_group_crystal_system       triclinic
_cell_length_a                    19.521973
_cell_length_b                    18.127768
_cell_length_c                    9.078414
_cell_angle_alpha                 90.003693
_cell_angle_beta                  90.550834
_cell_angle_gamma                 90.056364
_cell_volume                      3212.60805758

loop_
_atom_site_label
_atom_site_type_symbol
_atom_type_description
_atom_site_fract_x
_atom_site_fract_y
_atom_site_fract_z
_atom_type_partial_charge
C1    C     C_R   0.367509 0.499958 0.510178 0.775098
C2    C     C_R   0.632490 0.500042 0.489817 0.775095
C3    C     C_R   0.469165 0.721022 0.387281 0.120004
C4    C     C_R   0.530854 0.278978 0.612693 0.120002
C5    C     C_R   0.530840 0.721097 0.612707 0.118950
C6    C     C_R   0.469145 0.278904 0.387311 0.118974
C7    C     C_R   0.468975 0.798409 0.384656 -0.291484
C8    C     C_R   0.531048 0.201591 0.615313 -0.291488
C9    C     C_R   0.531041 0.798485 0.615308 -0.291406
C10   C     C_R   0.468946 0.201516 0.384704 -0.291428
C11   C     C_R   0.500007 0.838534 0.499981 0.096593
C12   C     C_R   0.499999 0.161466 0.500008 0.096603
C13   C     C_R   0.557495 0.961330 0.550348 -0.186899
C14   C     C_R   0.442512 0.038669 0.449638 -0.186886
C15   C     C_R   0.442517 0.961205 0.449613 -0.187264
C16   C     C_R   0.557491 0.038794 0.550369 -0.187247
C17   C     C_R   0.500000 0.078692 0.500009 0.117048
C18   C     C_R   0.500007 0.921307 0.499976 0.117050
C19   C     C_R   0.499991 0.499999 0.220374 0.844045
C20   C     C_R   0.500009 0.500001 0.779626 0.844055
C21   C     C_1   0.500003 0.499998 0.065480 -0.212941
C22   C     C_1   0.499997 0.500002 0.934520 -0.212939
C23   C     C_R   0.745941 0.432697 0.469884 -0.014269
C24   C     C_R   0.254049 0.567295 0.530029 -0.014290
C25   C     C_R   0.254310 0.432074 0.532070 -0.013438
C26   C     C_R   0.745695 0.567919 0.467973 -0.013447
C27   C     C_R   0.817383 0.434083 0.480623 -0.214248
C28   C     C_R   0.182607 0.565898 0.519299 -0.214244
C29   C     C_R   0.182864 0.432900 0.521360 -0.213348
C30   C     C_R   0.817141 0.567081 0.478678 -0.213347
C31   C     C_R   0.853001 0.500714 0.487393 0.071777
C32   C     C_R   0.146996 0.499260 0.512587 0.071781
C33   C     C_R   0.708474 0.500200 0.473818 -0.142145
C34   C     C_R   0.291525 0.499796 0.526167 -0.142141
C35   C     C_R   0.966043 0.547089 0.401683 -0.181206
C36   C     C_R   0.033953 0.452873 0.598281 -0.181206
C37   C     C_R   0.037299 0.546435 0.407440 -0.182947
C38   C     C_R   0.962697 0.453526 0.592520 -0.182945
C39   C     C_R   0.071729 0.499278 0.505641 0.116861
C40   C     C_R   0.928268 0.500687 0.494326 0.116855
Cu1   Cu    Cu3+1 0.500000 0.573360 0.500000 0.944393
Cu2   Cu    Cu3+1 0.500000 0.426640 0.500000 0.944399
H1    H     H_    0.845749 0.382694 0.477270 0.134908
H2    H     H_    0.154237 0.617284 0.522602 0.134909
H3    H     H_    0.154862 0.381211 0.522661 0.132613
H4    H     H_    0.845151 0.618766 0.477416 0.132622
H5    H     H_    0.940473 0.583009 0.323331 0.129563
H6    H     H_    0.059522 0.416955 0.676637 0.129556
H7    H     H_    0.065591 0.582096 0.334037 0.128565
H8    H     H_    0.934404 0.417864 0.665920 0.128570
H9    H     H_    0.444360 0.690950 0.298824 0.115999
H10   H     H_    0.555671 0.309050 0.701134 0.115984
H11   H     H_    0.555644 0.691085 0.701168 0.115907
H12   H     H_    0.444328 0.308917 0.298869 0.115896
H13   H     H_    0.444905 0.826508 0.292613 0.122439
H14   H     H_    0.555133 0.173493 0.707338 0.122431
H15   H     H_    0.555114 0.826643 0.707343 0.122414
H16   H     H_    0.444861 0.173359 0.292683 0.122406
H17   H     H_    0.603137 0.932732 0.587594 0.120031
H18   H     H_    0.396869 0.067266 0.412395 0.120029
H19   H     H_    0.396878 0.932509 0.412342 0.120017
H20   H     H_    0.603131 0.067489 0.587637 0.120018
N1    N     N_R   0.500000 0.683620 0.500000 -0.165793
N2    N     N_R   0.500000 0.316380 0.500000 -0.165786
O1    O     O_R   0.400190 0.561980 0.499980 -0.571824
O2    O     O_R   0.599810 0.438020 0.500020 -0.571827
O3    O     O_R   0.599810 0.561980 0.500020 -0.571415
O4    O     O_R   0.400190 0.438020 0.499980 -0.571418
O5    O     O_R   0.500000 0.561940 0.288400 -0.591807
O6    O     O_R   0.500000 0.438060 0.711600 -0.591797
O7    O     O_R   0.500000 0.561940 0.711600 -0.591956
O8    O     O_R   0.500000 0.438060 0.288400 -0.591951
C41   C     C_R   0.713950 0.359893 0.440115 0.144858
C42   C     C_R   0.722617 0.301297 0.539846 -0.168568
C43   C     C_R   0.696240 0.231442 0.506514 -0.151692
C44   C     C_R   0.661201 0.219576 0.373605 -0.099309
C45   C     C_R   0.652235 0.277580 0.273961 -0.132305
C46   C     C_R   0.678964 0.347367 0.306279 -0.091603
H21   H     H_    0.750048 0.309692 0.642759 0.119826
H22   H     H_    0.702904 0.186482 0.583750 0.119681
H23   H     H_    0.640736 0.165498 0.348150 0.127632
H24   H     H_    0.624949 0.268348 0.171252 0.116888
H25   H     H_    0.672662 0.391598 0.227078 0.102870
C47   C     C_R   0.286030 0.640113 0.559696 0.144876
C48   C     C_R   0.320991 0.652701 0.693539 -0.091638
C49   C     C_R   0.347698 0.722507 0.725768 -0.132300
C50   C     C_R   0.338734 0.780470 0.626025 -0.099302
C51   C     C_R   0.303725 0.768541 0.493103 -0.151752
C52   C     C_R   0.277370 0.698666 0.459861 -0.168552
H26   H     H_    0.327287 0.608503 0.772817 0.102892
H27   H     H_    0.374963 0.731789 0.828485 0.116890
H28   H     H_    0.359181 0.834564 0.651413 0.127624
H29   H     H_    0.297065 0.813468 0.415789 0.119685
H30   H     H_    0.249959 0.690223 0.356941 0.119830
C53   C     C_R   0.286624 0.359637 0.563177 0.143429
C54   C     C_R   0.278177 0.300485 0.464615 -0.167525
C55   C     C_R   0.304953 0.231014 0.499174 -0.151354
C56   C     C_R   0.340212 0.220091 0.632110 -0.099290
C57   C     C_R   0.348967 0.278653 0.730591 -0.132347
C58   C     C_R   0.321825 0.348057 0.697065 -0.093105
H31   H     H_    0.250630 0.308155 0.361641 0.121894
H32   H     H_    0.298453 0.185627 0.422834 0.119794
H33   H     H_    0.361007 0.166312 0.658482 0.127778
H34   H     H_    0.376419 0.270152 0.833333 0.116855
H35   H     H_    0.327993 0.392731 0.775355 0.102765
C59   C     C_R   0.713390 0.640367 0.436920 0.143431
C60   C     C_R   0.678193 0.651976 0.303036 -0.093105
C61   C     C_R   0.651064 0.721391 0.269553 -0.132355
C62   C     C_R   0.659826 0.779934 0.368075 -0.099291
C63   C     C_R   0.695080 0.768982 0.501008 -0.151378
C64   C     C_R   0.721843 0.699500 0.535522 -0.167518
H36   H     H_    0.672020 0.607317 0.224714 0.102772
H37   H     H_    0.623615 0.729915 0.166820 0.116862
H38   H     H_    0.639042 0.833722 0.341736 0.127776
H39   H     H_    0.701586 0.814355 0.577379 0.119796
H40   H     H_    0.749388 0.691808 0.638493 0.121897

loop_
_geom_bond_atom_site_label_1
_geom_bond_atom_site_label_2
_ccdc_geom_bond_type
C15   C18   A    
C50   C51   A    
C11   C18   S    
Cu1   Cu2   S    
C53   C54   A    
C7    H13   S    
C4    C8    A    
C35   H5    S    
C26   C59   S    
C55   C56   A    
Cu1   O3    S    
C45   C46   A    
C31   C40   S    
C7    C11   A    
C58   H35   S    
C13   C18   A    
C4    H10   S    
C5    H11   S    
C10   H16   S    
C6    H12   S    
C29   C32   A    
C3    C7    A    
C49   H27   S    
C30   C31   A    
C59   C60   A    
C56   H33   S    
Cu2   O6    S    
C1    O4    A    
C61   C62   A    
C5    N1    A    
C60   H36   S    
C32   C39   S    
C6    N2    A    
C52   H30   S    
C63   C64   A    
C46   H25   S    
C16   C17   A    
C23   C33   A    
C12   C17   S    
C1    O1    A    
C41   C46   A    
C20   O7    A    
C64   H40   S    
C23   C27   A    
C43   H22   S    
C55   H32   S    
C25   C34   A    
Cu1   O7    S    
C57   H34   S    
C54   H31   S    
Cu2   O4    S    
C14   C17   A    
C8    H14   S    
C19   O8    A    
C16   H20   S    
C23   C41   S    
C1    C34   S    
C59   C64   A    
C41   C42   A    
C25   C29   A    
C42   C43   A    
C27   C31   A    
C28   C32   A    
C44   C45   A    
C2    O3    A    
C3    H9    S    
C49   C50   A    
Cu1   O1    S    
C48   C49   A    
C28   H2    S    
C24   C34   A    
C29   H3    S    
C61   H37   S    
C43   C44   A    
C5    C9    A    
C37   H7    S    
C26   C33   A    
C57   C58   A    
C8    C12   A    
C54   C55   A    
Cu2   O8    S    
C15   H19   S    
C47   C48   A    
C9    C11   A    
C10   C12   A    
C62   H38   S    
C13   H17   S    
C2    C33   S    
C20   C22   S    
C26   C30   A    
C42   H21   S    
C19   O5    A    
C47   C52   A    
Cu1   N1    S    
C60   C61   A    
Cu2   N2    S    
C20   O6    A    
Cu1   O5    S    
C51   H29   S    
C35   C37   A    
C53   C58   A    
C30   H4    S    
C36   C39   A    
C24   C28   A    
C2    O2    A    
C44   H23   S    
C6    C10   A    
C48   H26   S    
C25   C53   S    
C38   H8    S    
C3    N1    A    
C14   H18   S    
C4    N2    A    
C21   C22   T    
C36   C38   A    
C35   C40   A    
C24   C47   S    
C37   C39   A    
C62   C63   A    
C38   C40   A    
C45   H24   S    
C36   H6    S    
C9    H15   S    
C27   H1    S    
C51   C52   A    
C56   C57   A    
C13   C16   A    
Cu2   O2    S    
C14   C15   A    
C50   H28   S    
C63   H39   S    
C19   C21   S    
