data_mof_unit_52278.cif
_audit_creation_date              2013-03-05T15:49:56-0500
_audit_creation_method            fapswitch 2.2
_symmetry_space_group_name_H-M    P1
_symmetry_Int_Tables_number       1
_space_group_crystal_system       triclinic
_cell_length_a                    6.936141
_cell_length_b                    19.896867
_cell_length_c                    23.689161
_cell_angle_alpha                 93.081666
_cell_angle_beta                  90.990344
_cell_angle_gamma                 89.58354
_cell_volume                      3264.00021428

loop_
_atom_site_label
_atom_site_type_symbol
_atom_site_description
_atom_site_fract_x
_atom_site_fract_y
_atom_site_fract_z
_atom_type_partial_charge
O1    O     O_R   0.620100 0.812200 0.810870 -0.570377
O2    O     O_R   0.379900 0.187800 0.189130 -0.583040
O3    O     O_R   0.296960 0.671650 0.794750 -0.617188
O4    O     O_R   0.703040 0.328350 0.205250 -0.618057
O5    O     O_R   0.120160 0.687800 0.689130 -0.552363
O6    O     O_R   0.879840 0.312200 0.310870 -0.545187
C1    C     C_R   0.466062 0.647142 0.804968 1.181676
C2    C     C_R   0.534094 0.354304 0.196863 1.161754
O7    O     O_R   0.290810 0.810670 0.817290 -0.578518
O8    O     O_R   0.709190 0.189330 0.182710 -0.581247
O9    O     O_R   0.113980 0.827820 0.711840 -0.595975
O10   O     O_R   0.886020 0.172180 0.288160 -0.581482
C3    C     C_R   0.460781 0.830523 0.835040 0.997942
C4    C     C_R   0.539337 0.168956 0.165299 0.989309
O11   O     O_R   0.626290 0.672180 0.788160 -0.581016
O12   O     O_R   0.373710 0.327820 0.211840 -0.583036
O13   O     O_3   0.451520 0.755460 0.715370 -0.260012
O14   O     O_3   0.548480 0.244540 0.284630 -0.245380
V1    V     V_3+5 0.179200 0.748980 0.756420 1.262700
V2    V     V_3+5 0.820800 0.251020 0.243580 1.262896
O15   O     O_R   0.783880 0.828350 0.705250 -0.615174
O16   O     O_R   0.216120 0.171650 0.294750 -0.621585
C5    C     C_R   0.951676 0.852622 0.694169 1.051821
C6    C     C_R   0.048775 0.147252 0.305580 1.026626
O17   O     O_R   0.790030 0.689320 0.682700 -0.575699
O18   O     O_R   0.209970 0.310680 0.317300 -0.569665
C7    C     C_R   0.958558 0.669176 0.665212 1.043390
C8    C     C_R   0.041529 0.330627 0.334870 1.038680
V3    V     V_3+5 0.678400 0.751010 0.743570 1.266013
V4    V     V_3+5 0.321600 0.248990 0.256430 1.261516
O19   O     O_3   0.955950 0.744540 0.784620 -0.257883
O20   O     O_3   0.044050 0.255460 0.215380 -0.260203
C9    C     C_R   0.138891 0.439611 0.384463 0.567643
C10   C     C_R   0.871219 0.558275 0.617031 0.582269
C11   C     C_R   0.032399 0.379624 0.384313 -0.467633
C12   C     C_R   0.968293 0.619996 0.615838 -0.484843
C13   C     C_R   0.916864 0.366582 0.430705 0.320629
C14   C     C_R   0.076886 0.634030 0.568289 0.294780
C15   C     C_R   0.894762 0.416165 0.475626 -0.148825
C16   C     C_R   0.103792 0.583700 0.524241 -0.146941
C17   C     C_R   0.007944 0.475475 0.476948 -0.039332
C18   C     C_R   0.993966 0.523803 0.523357 -0.044214
C19   C     C_R   0.136471 0.486168 0.432232 -0.222998
C20   C     C_R   0.869469 0.512475 0.568774 -0.229924
C21   C     C_R   0.758167 0.408616 0.518601 0.503103
C22   C     C_R   0.242407 0.591187 0.481922 0.507130
C23   C     C_R   0.748138 0.455421 0.565017 0.175056
C24   C     C_R   0.258211 0.543321 0.436391 0.169960
C25   C     C_R   0.958862 0.915331 0.662791 -0.375144
C26   C     C_R   0.047924 0.085087 0.337596 -0.346664
C27   C     C_R   0.938112 0.037662 0.662774 0.252638
C28   C     C_R   0.061160 0.962885 0.339576 0.263376
C29   C     C_R   0.909027 0.977177 0.689872 0.454073
C30   C     C_R   0.050678 0.021576 0.308716 0.449694
C31   C     C_R   0.016185 0.913475 0.606127 -0.242356
C32   C     C_R   0.054205 0.089385 0.397060 -0.224054
C33   C     C_R   0.047298 0.973419 0.577264 0.100325
C34   C     C_R   0.086588 0.031591 0.429028 0.103040
C35   C     C_R   0.015343 0.036273 0.607245 -0.333685
C36   C     C_R   0.098840 0.967975 0.398942 -0.341306
C37   C     C_R   0.101298 0.972943 0.518785 -0.235766
C38   C     C_R   0.097911 0.034163 0.489992 -0.222904
C39   C     C_R   0.114373 0.094898 0.524014 0.497487
C40   C     C_R   0.166347 0.914330 0.487848 0.491161
C41   C     C_R   0.070776 0.096030 0.581751 0.488658
C42   C     C_R   0.159289 0.911251 0.428572 0.493179
H1    H     H_    0.032414 0.138629 0.417116 0.222927
H2    H     H_    0.030711 0.864314 0.585246 0.225591
C43   C     C_R   0.472828 0.584675 0.835850 -0.471632
C44   C     C_R   0.529773 0.418913 0.168858 -0.474268
C45   C     C_R   0.452334 0.463446 0.838736 -0.258721
C46   C     C_R   0.631187 0.534856 0.164549 -0.276608
C47   C     C_R   0.449836 0.520885 0.807055 0.231338
C48   C     C_R   0.605364 0.478324 0.196383 0.237787
C49   C     C_R   0.480936 0.589874 0.895695 0.499373
C50   C     C_R   0.470677 0.419087 0.111559 0.453414
C51   C     C_R   0.497814 0.530781 0.927417 -0.072519
C52   C     C_R   0.522653 0.473415 0.077784 -0.071057
C53   C     C_R   0.475141 0.467709 0.897567 0.066423
C54   C     C_R   0.595229 0.532513 0.106199 0.091427
C55   C     C_R   0.531623 0.531587 0.987515 0.090968
C56   C     C_R   0.507328 0.471349 0.017174 0.065434
C57   C     C_R   0.487461 0.410148 0.984944 -0.146864
C58   C     C_R   0.604236 0.588826 0.018229 -0.176397
C59   C     C_R   0.473814 0.408466 0.926471 -0.159167
C60   C     C_R   0.636063 0.589019 0.076188 -0.198171
H3    H     H_    0.460904 0.359976 0.903589 0.159889
H4    H     H_    0.695491 0.633900 0.097698 0.136324
H5    H     H_    0.434486 0.414315 0.817315 0.194668
H6    H     H_    0.686414 0.580920 0.185103 0.193219
H7    H     H_    0.495626 0.361999 0.003541 0.220505
H8    H     H_    0.651149 0.632907 0.997989 0.206760
C61   C     C_R   0.647300 0.063458 0.113905 -0.245113
C62   C     C_R   0.339280 0.930531 0.890817 -0.159880
C63   C     C_R   0.525386 0.119830 0.115903 -0.326567
C64   C     C_R   0.473582 0.877894 0.885653 -0.315332
C65   C     C_R   0.389351 0.128266 0.071555 0.326777
C66   C     C_R   0.621778 0.872835 0.927290 0.343739
C67   C     C_R   0.372123 0.078621 0.026037 -0.185419
C68   C     C_R   0.626386 0.918775 0.975698 -0.189005
C69   C     C_R   0.499106 0.022106 0.024729 -0.029769
C70   C     C_R   0.491840 0.973055 0.978865 -0.018116
C71   C     C_R   0.636525 0.015210 0.068646 0.115260
C72   C     C_R   0.351032 0.978910 0.935797 0.142617
C73   C     C_R   0.231862 0.083201 0.981829 0.610255
C74   C     C_R   0.758696 0.911860 0.021576 0.622307
C75   C     C_R   0.223877 0.033626 0.937573 -0.347502
C76   C     C_R   0.763953 0.960428 0.066673 -0.382435
H9    H     H_    0.751947 0.057302 0.147841 0.180812
H10   H     H_    0.228936 0.935302 0.858217 0.163407
H11   H     H_    0.118324 0.038772 0.903750 0.179794
H12   H     H_    0.869736 0.955059 0.100403 0.178685
O21   O     O_3   0.252539 0.450674 0.338469 -0.575537
C77   C     C_3   0.141286 0.484226 0.298204 0.041939
H13   H     H_    0.028337 0.450635 0.278859 0.094146
H14   H     H_    0.236780 0.498271 0.263753 0.145060
H15   H     H_    0.076188 0.531537 0.316769 0.164629
O22   O     O_3   0.774819 0.543788 0.665468 -0.575345
C78   C     C_3   0.903618 0.510530 0.701474 0.025084
H16   H     H_    0.018964 0.545084 0.718048 0.111035
H17   H     H_    0.967662 0.464646 0.680001 0.160073
H18   H     H_    0.822859 0.494163 0.738271 0.148724
O23   O     O_3   0.358146 0.366385 0.090127 -0.612496
C79   C     C_3   0.162935 0.386603 0.092960 -0.037777
H19   H     H_    0.132520 0.429544 0.065839 0.094309
H20   H     H_    0.120278 0.399798 0.137322 0.101058
H21   H     H_    0.071628 0.343946 0.076951 0.197295
O24   O     O_3   0.459094 0.653180 0.921993 -0.626923
C80   C     C_3   0.264478 0.662266 0.937324 -0.155035
H22   H     H_    0.223084 0.627012 0.969857 0.122271
H23   H     H_    0.165333 0.656465 0.899961 0.152348
H24   H     H_    0.245906 0.714240 0.955916 0.197772
N1    N     N_R   0.650594 0.483664 0.256375 0.233468
O25   O     O_R   0.627869 0.433411 0.288472 -0.360359
O26   O     O_R   0.705703 0.540943 0.280246 -0.359405
N2    N     N_R   0.412713 0.512842 0.746721 0.240477
O27   O     O_R   0.410330 0.563786 0.714543 -0.364329
O28   O     O_R   0.369108 0.453898 0.723756 -0.344608
N3    N     N_R   0.282037 0.189929 0.070713 0.252248
O29   O     O_R   0.124357 0.197627 0.099339 -0.393889
O30   O     O_R   0.333727 0.236162 0.037387 -0.362471
N4    N     N_R   0.769201 0.822483 0.919332 0.255381
O31   O     O_R   0.726235 0.758968 0.918949 -0.398860
O32   O     O_R   0.943298 0.840116 0.907227 -0.370569
O33   O     O_3   0.108436 0.137896 0.979359 -0.572735
C81   C     C_3   0.923563 0.118427 0.995757 -0.059078
H25   H     H_    0.928932 0.098761 0.038770 0.133688
H26   H     H_    0.858908 0.080605 0.964862 0.103979
H27   H     H_    0.827769 0.163353 0.997366 0.181980
O34   O     O_3   0.887891 0.858702 0.022494 -0.585156
C82   C     C_3   0.812815 0.809392 0.056511 -0.127610
H28   H     H_    0.668083 0.792091 0.040912 0.134211
H29   H     H_    0.805763 0.828137 0.101536 0.138371
H30   H     H_    0.910699 0.765011 0.054435 0.163619
N5    N     N_R   0.840121 0.300199 0.434817 0.235634
O35   O     O_R   0.692934 0.280188 0.403727 -0.394821
O36   O     O_R   0.908618 0.261570 0.473052 -0.344667
N6    N     N_R   0.138544 0.701760 0.561553 0.245117
O37   O     O_R   0.275920 0.728325 0.593263 -0.389440
O38   O     O_R   0.062989 0.735712 0.521205 -0.332271
O39   O     O_3   0.630580 0.355266 0.515840 -0.549661
C83   C     C_3   0.460861 0.374966 0.487280 -0.034460
H31   H     H_    0.491453 0.390071 0.443813 0.156046
H32   H     H_    0.385083 0.416425 0.511265 0.120245
H33   H     H_    0.361539 0.331455 0.483324 0.176726
O40   O     O_3   0.368279 0.645042 0.485028 -0.538683
C84   C     C_3   0.533834 0.627066 0.516403 -0.014971
H34   H     H_    0.613311 0.584760 0.494674 0.115175
H35   H     H_    0.497101 0.613950 0.559994 0.144380
H36   H     H_    0.632202 0.670848 0.520181 0.174023
N7    N     N_R   0.601467 0.446561 0.605757 0.285871
O41   O     O_R   0.454563 0.487623 0.607884 -0.353890
O42   O     O_R   0.594508 0.390818 0.631969 -0.284471
N8    N     N_R   0.408785 0.551861 0.396723 0.282136
O43   O     O_R   0.557385 0.511571 0.396482 -0.348320
O44   O     O_R   0.415867 0.606638 0.369228 -0.290066
O45   O     O_3   0.080341 0.157184 0.612403 -0.546747
C85   C     C_3   0.257898 0.161118 0.642404 0.094380
H37   H     H_    0.378992 0.167703 0.613284 0.130555
H38   H     H_    0.285213 0.116571 0.667996 0.069885
H39   H     H_    0.254239 0.206100 0.672133 0.185941
O46   O     O_3   0.213099 0.851513 0.400239 -0.541940
C86   C     C_3   0.403898 0.857368 0.381378 0.109299
H40   H     H_    0.507621 0.863345 0.417492 0.095236
H41   H     H_    0.419415 0.899586 0.352872 0.063356
H42   H     H_    0.442897 0.810304 0.356878 0.197229
O47   O     O_3   0.019962 0.016404 0.250733 -0.615197
C87   C     C_3   0.199687 0.017725 0.223683 -0.135565
H43   H     H_    0.305857 0.981583 0.240958 0.148311
H44   H     H_    0.261220 0.069026 0.226551 0.125083
H45   H     H_    0.177028 0.003371 0.178153 0.164847
O48   O     O_3   0.841353 0.978706 0.744585 -0.601790
C88   C     C_3   0.637809 0.980693 0.742527 -0.113075
H46   H     H_    0.583913 0.976636 0.786023 0.150629
H47   H     H_    0.576470 0.937952 0.715965 0.106720
H48   H     H_    0.583514 0.029119 0.726915 0.150722
N9    N     N_R   0.880432 0.099853 0.691365 0.262316
O49   O     O_R   0.938069 0.114294 0.743136 -0.351702
O50   O     O_R   0.749230 0.137409 0.668616 -0.381090
N10   N     N_R   0.017233 0.898813 0.311363 0.275990
O51   O     O_R   0.093003 0.880919 0.262968 -0.371244
O52   O     O_R   0.888043 0.860367 0.332056 -0.357683
O53   O     O_3   0.184156 0.153686 0.503394 -0.580933
C89   C     C_3   0.382081 0.145448 0.491095 -0.118543
H49   H     H_    0.464522 0.120607 0.525046 0.096688
H50   H     H_    0.445662 0.195919 0.486997 0.222271
H51   H     H_    0.402025 0.116446 0.450256 0.129423
O54   O     O_3   0.250866 0.860519 0.513844 -0.546853
C90   C     C_3   0.428818 0.880767 0.539182 -0.069384
H52   H     H_    0.406380 0.909954 0.579829 0.111715
H53   H     H_    0.517402 0.910663 0.510945 0.062292
H54   H     H_    0.513246 0.835052 0.548679 0.194243

loop_
_geom_bond_atom_site_label_1
_geom_bond_atom_site_label_2
_geom_bond_distance
_ccdc_geom_bond_type
C34   C38   1.443123 A    
V4    O20   2.147897 S    
O53   C89   1.414870 S    
C39   C41   1.404833 A    
C10   O22   1.382632 S    
C69   C70   1.421363 A    
C74   O34   1.382101 S    
O11   V3    1.976382 S    
N5    O36   1.300591 A    
O13   V3    1.702511 S    
C17   C18   1.425273 A    
C13   N5    1.436395 S    
O4    C2    1.293646 A    
V1    O19   1.701762 S    
O24   C80   1.411775 S    
C61   C71   1.401514 A    
C45   C53   1.397984 A    
O39   C83   1.411191 S    
O23   C79   1.411382 S    
C84   H35   1.112833 S    
O18   C8    1.299255 A    
C16   C22   1.415287 A    
C73   C75   1.400981 A    
O9    V1    1.982908 S    
C26   C30   1.404442 A    
C39   O53   1.385237 S    
C87   H45   1.109618 S    
C11   C13   1.407630 A    
C58   C60   1.386688 A    
C81   H25   1.110871 S    
O3    C1    1.290994 A    
C86   H41   1.112658 S    
C81   H26   1.112389 S    
C9    C11   1.407992 A    
C52   C54   1.414563 A    
C5    C25   1.487861 S    
O12   V4    1.976382 S    
C83   H33   1.109324 S    
C48   N1    1.448523 S    
C90   H54   1.109330 S    
O7    C3    1.301738 A    
C2    C44   1.477851 S    
O17   V3    2.004956 S    
C87   H44   1.107499 S    
C49   O24   1.383390 S    
C82   H30   1.109451 S    
C33   C37   1.440832 A    
N9    O50   1.301312 A    
C21   O39   1.385068 S    
N8    O43   1.301047 A    
C54   C60   1.395422 A    
C27   N9    1.435976 S    
C90   H53   1.114051 S    
O5    C7    1.294706 A    
O7    V1    1.992503 S    
O6    C8    1.294972 A    
C8    C11   1.484980 S    
O8    V2    1.992504 S    
N10   O51   1.300586 A    
C88   H47   1.112926 S    
C64   C66   1.419055 A    
C44   C48   1.418341 A    
C82   H28   1.114158 S    
C89   H51   1.109740 S    
C43   C47   1.416949 A    
C71   C76   1.397646 A    
O14   V4    1.702511 S    
C28   C36   1.424320 A    
C19   C24   1.419469 A    
O14   V2    2.147215 S    
C20   C23   1.416068 A    
C15   C21   1.417204 A    
C80   H24   1.109513 S    
C74   C76   1.401644 A    
C16   C18   1.418100 A    
C42   O46   1.385264 S    
C62   C72   1.398745 A    
C2    O12   1.297437 A    
C66   N4    1.433979 S    
N6    O38   1.300590 A    
C17   C19   1.421871 A    
O40   C84   1.411406 S    
N9    O49   1.301265 A    
C18   C20   1.419506 A    
O1    V3    1.998492 S    
O22   C78   1.410406 S    
C65   C67   1.426682 A    
C46   C54   1.398689 A    
C28   C30   1.411412 A    
O33   C81   1.409210 S    
C84   H36   1.109292 S    
C24   N8    1.434006 S    
C21   C23   1.404543 A    
C6    C26   1.485360 S    
C77   H15   1.113362 S    
C67   C73   1.423120 A    
C22   C24   1.405199 A    
C55   C56   1.433933 A    
C59   H3    1.084451 S    
C9    C19   1.423594 A    
C85   H37   1.108990 S    
C10   C20   1.423073 A    
C14   N6    1.434668 S    
C15   C17   1.420750 A    
O8    C4    1.301763 A    
C86   H42   1.109159 S    
C84   H34   1.110810 S    
C45   C47   1.400426 A    
C31   H2    1.076982 S    
O54   C90   1.414826 S    
C1    O11   1.298664 A    
C3    C64   1.486546 S    
C25   C31   1.405060 A    
O15   V3    1.979094 S    
C62   H10   1.085170 S    
C26   C32   1.406575 A    
C76   H12   1.084432 S    
C87   H43   1.113746 S    
C27   C29   1.411440 A    
C40   C42   1.402280 A    
N6    O37   1.300574 A    
C37   C40   1.418670 A    
C70   C72   1.408905 A    
C86   H40   1.110263 S    
C38   C39   1.420230 A    
C81   H27   1.109298 S    
C46   H6    1.083751 S    
C52   C56   1.436294 A    
C23   N7    1.432568 S    
C45   H5    1.083837 S    
C47   N2    1.448426 S    
C51   C55   1.438103 A    
C78   H16   1.111321 S    
C88   H48   1.111395 S    
C73   O33   1.382812 S    
O3    V1    1.991310 S    
O10   V2    1.982910 S    
C68   C70   1.421966 A    
C90   H52   1.110117 S    
C51   C53   1.415357 A    
C72   C75   1.395443 A    
C62   C64   1.398414 A    
C49   C51   1.432050 A    
N7    O41   1.301359 A    
C78   H17   1.114246 S    
O45   C85   1.411782 S    
C79   H21   1.109130 S    
C28   N10   1.439343 S    
C46   C48   1.401711 A    
C57   C59   1.385396 A    
C89   H50   1.109392 S    
O18   V4    2.004955 S    
C66   C68   1.427605 A    
C30   O47   1.384811 S    
C31   C33   1.425865 A    
C44   C50   1.411287 A    
N1    O25   1.300351 A    
O16   C6    1.296391 A    
O1    C3    1.294402 A    
C12   C14   1.407217 A    
C4    C63   1.486109 S    
C53   C59   1.394808 A    
C55   C58   1.409479 A    
C57   H7    1.076480 S    
N2    O28   1.301448 A    
C79   H20   1.113903 S    
O21   C77   1.409430 S    
V2    O20   1.701762 S    
C78   H18   1.108925 S    
C77   H14   1.108492 S    
C22   O40   1.385193 S    
C67   C69   1.422661 A    
N4    O31   1.300033 A    
C50   O23   1.381132 S    
C75   H11   1.084412 S    
C50   C52   1.430812 A    
N2    O27   1.300453 A    
C1    C43   1.475775 S    
C85   H38   1.113734 S    
N3    O29   1.300587 A    
C63   C65   1.415821 A    
C77   H13   1.110287 S    
O5    V1    1.991615 S    
C7    C12   1.486212 S    
C83   H31   1.112362 S    
C32   H1    1.076511 S    
O6    V2    1.991614 S    
O10   C6    1.299398 A    
C9    O21   1.383820 S    
O2    V4    1.998491 S    
O48   C88   1.412147 S    
O15   C5    1.299634 A    
C80   H22   1.112254 S    
C36   C42   1.417893 A    
O47   C87   1.412513 S    
V3    O19   2.147899 S    
C83   H32   1.110479 S    
O16   V4    1.979092 S    
C35   C41   1.420593 A    
C14   C16   1.420599 A    
N3    O30   1.300252 A    
C61   C63   1.399013 A    
C41   O45   1.384442 S    
C25   C29   1.400654 A    
O9    C5    1.297666 A    
O13   V1    2.147215 S    
C10   C12   1.406652 A    
C32   C34   1.424869 A    
C43   C49   1.416058 A    
C60   H4    1.084507 S    
C82   H29   1.112621 S    
C37   C38   1.427553 A    
O2    C4    1.294234 A    
C29   O48   1.384815 S    
N8    O44   1.301040 A    
C85   H39   1.109134 S    
C33   C35   1.422486 A    
C68   C74   1.421996 A    
O4    V2    1.991308 S    
N7    O42   1.301497 A    
C13   C15   1.421180 A    
C27   C35   1.427701 A    
C89   H49   1.113948 S    
C69   C71   1.410278 A    
C88   H46   1.109339 S    
C61   H9    1.085024 S    
N5    O35   1.300609 A    
N1    O26   1.301670 A    
O34   C82   1.410688 S    
C58   H8    1.076937 S    
C56   C57   1.408407 A    
C34   C36   1.421587 A    
C65   N3    1.431284 S    
N10   O52   1.301490 A    
N4    O32   1.300949 A    
O46   C86   1.411698 S    
C40   O54   1.385094 S    
C79   H19   1.113104 S    
C80   H23   1.112984 S    
O17   C7    1.300287 A    
