data_mof_unit_64522.cif
_audit_creation_date              2012-12-10T21:33:26-0500
_audit_creation_method            fapswitch 2.2
_symmetry_space_group_name_H-M    P1
_symmetry_Int_Tables_number       1
_space_group_crystal_system       triclinic
_cell_length_a                    14.165682
_cell_length_b                    16.106042
_cell_length_c                    16.665667
_cell_angle_alpha                 87.938196
_cell_angle_beta                  90.125295
_cell_angle_gamma                 92.030109
_cell_volume                      3797.47488348

loop_
_atom_site_label
_atom_site_type_symbol
_atom_type_description
_atom_site_fract_x
_atom_site_fract_y
_atom_site_fract_z
_atom_type_partial_charge
C1    C     C_R   0.502295 0.489062 0.653409 0.875999
C2    C     C_R   0.497704 0.510938 0.346591 0.876000
C3    C     C_R   0.501530 0.404994 0.865720 -0.165270
C4    C     C_R   0.498439 0.595009 0.134282 -0.165272
C5    C     C_R   0.491235 0.408862 0.782878 -0.207855
C6    C     C_R   0.508748 0.591139 0.217122 -0.207853
C7    C     C_R   0.460628 0.764034 0.456482 -0.004339
C8    C     C_R   0.539352 0.235965 0.543531 -0.004343
C9    C     C_R   0.463536 0.850944 0.459883 -0.289879
C10   C     C_R   0.536444 0.149054 0.540130 -0.289879
C11   C     C_R   0.518539 0.890936 0.519042 0.321556
C12   C     C_R   0.481463 0.109064 0.480956 0.321558
C13   C     C_R   0.569939 0.840228 0.573835 -0.126398
C14   C     C_R   0.430083 0.159774 0.426150 -0.126401
C15   C     C_R   0.564375 0.753132 0.567352 -0.083342
C16   C     C_R   0.435645 0.246869 0.432634 -0.083342
C17   C     C_R   0.671031 0.499730 0.500023 0.897272
C18   C     C_R   0.328969 0.500270 0.499977 0.897271
C19   C     C_1   0.772408 0.499298 0.500030 -0.197309
C20   C     C_1   0.227592 0.500702 0.499970 -0.197308
C21   C     C_1   0.857589 0.499378 0.500028 0.003244
C22   C     C_1   0.142411 0.500622 0.499971 0.003245
C23   C     C_1   0.957405 0.499786 0.500010 0.021030
C24   C     C_1   0.042595 0.500214 0.499990 0.021031
C25   C     C_R   0.515574 0.482665 0.739835 -0.086915
C26   C     C_R   0.484414 0.517336 0.260166 -0.086912
C27   C     C_R   0.556299 0.550568 0.779266 -0.188868
C28   C     C_R   0.443677 0.449435 0.220739 -0.188870
C29   C     C_R   0.568262 0.546953 0.862320 0.007141
C30   C     C_R   0.431699 0.453052 0.137686 0.007142
C31   C     C_R   0.536212 0.474510 0.905620 0.215619
C32   C     C_R   0.463747 0.525494 0.094385 0.215617
H1    H     H_    0.420994 0.393726 0.254831 0.188778
H2    H     H_    0.578986 0.606277 0.745176 0.188787
H3    H     H_    0.477855 0.349393 0.899431 0.154650
H4    H     H_    0.522111 0.650609 0.100569 0.154651
H5    H     H_    0.603220 0.713698 0.608687 0.131524
H6    H     H_    0.396815 0.286304 0.391289 0.131527
N1    N     N_2   0.528100 0.473653 0.989361 -0.212665
N2    N     N_2   0.471855 0.526349 0.010643 -0.212664
N3    N     N_R   0.510540 0.716920 0.509720 -0.077668
N4    N     N_R   0.489460 0.283080 0.490280 -0.077668
N5    N     N_2   0.523758 0.979917 0.525223 -0.119887
N6    N     N_2   0.476244 0.020083 0.474775 -0.119886
O1    O     O_R   0.496230 0.422540 0.612660 -0.615696
O2    O     O_R   0.503770 0.577460 0.387340 -0.615688
O3    O     O_R   0.503000 0.561840 0.618900 -0.614548
O4    O     O_R   0.497000 0.438160 0.381100 -0.614555
O5    O     O_R   0.622900 0.430330 0.496880 -0.591451
O6    O     O_R   0.377100 0.569670 0.503120 -0.591459
O7    O     O_R   0.629670 0.569640 0.503120 -0.596245
O8    O     O_R   0.370330 0.430360 0.496880 -0.596239
Zn1   Zn    Zn3+2 0.495480 0.406980 0.495830 0.953373
Zn2   Zn    Zn3+2 0.504520 0.593020 0.504170 0.953372
C33   C     C_2   0.386569 0.381642 0.096460 0.411359
H7    H     H_    0.370864 0.386439 0.032757 0.086487
O9    O     O_2   0.365611 0.316667 0.133248 -0.572189
C34   C     C_2   0.613382 0.618365 0.903550 0.411363
H8    H     H_    0.629085 0.613567 0.967253 0.086481
O10   O     O_2   0.634331 0.683344 0.866765 -0.572180
H9    H     H_    0.461444 0.355394 0.752905 0.168385
H10   H     H_    0.538546 0.644606 0.247092 0.168388
H11   H     H_    0.581812 0.265976 0.588885 0.142727
H12   H     H_    0.418152 0.734021 0.411139 0.142727
H13   H     H_    0.577165 0.113814 0.583581 0.207944
H14   H     H_    0.422798 0.886183 0.416443 0.207944
C35   C     C_2   0.630033 0.874651 0.638692 0.429332
H15   H     H_    0.667397 0.832690 0.678994 0.083181
O11   O     O_2   0.638966 0.949274 0.648381 -0.549093
C36   C     C_2   0.370012 0.125352 0.361278 0.429320
H16   H     H_    0.332665 0.167314 0.320966 0.083203
O12   O     O_2   0.361081 0.050729 0.351587 -0.549092

loop_
_geom_bond_atom_site_label_1
_geom_bond_atom_site_label_2
_ccdc_geom_bond_type
C3    C31   A    
C23   C24   T    
C4    H4    S    
C11   N5    S    
C36   H16   S    
C14   C16   A    
C17   O7    A    
C27   C29   A    
C14   C36   S    
C30   C33   S    
C26   C28   A    
C31   N1    S    
O6    Zn2   S    
C3    H3    S    
C33   H7    S    
O7    Zn2   S    
C1    O1    A    
O2    Zn2   S    
C29   C31   A    
C28   C30   A    
C12   C14   A    
C3    C5    A    
C18   O8    A    
C2    C26   S    
C33   O9    D    
C4    C32   A    
C2    O2    A    
C30   C32   A    
C9    C11   A    
C6    H10   S    
C6    C26   A    
C10   C12   A    
N5    N6    D    
O3    Zn2   S    
O5    Zn1   S    
C18   O6    A    
C29   C34   S    
C22   C24   S    
C8    C10   A    
C17   C19   S    
C8    N4    A    
C28   H1    S    
C18   C20   S    
C13   C15   A    
C27   H2    S    
C1    O3    A    
O4    Zn1   S    
N3    Zn2   S    
C5    C25   A    
N4    Zn1   S    
C25   C27   A    
C20   C22   T    
C8    H11   S    
O1    Zn1   S    
C35   H15   S    
C16   N4    A    
C11   C13   A    
C32   N2    S    
O8    Zn1   S    
C15   N3    A    
C4    C6    A    
C13   C35   S    
C10   H13   S    
C17   O5    A    
N1    N2    D    
C7    C9    A    
C9    H14   S    
C12   N6    S    
C36   O12   D    
C7    H12   S    
C2    O4    A    
C34   H8    S    
C19   C21   T    
C34   O10   D    
C21   C23   S    
C1    C25   S    
C15   H5    S    
C5    H9    S    
C7    N3    A    
C16   H6    S    
C35   O11   D    
