data_mof_unit_63408.cif
_audit_creation_date              2012-12-10T16:54:45-0500
_audit_creation_method            fapswitch 2.2
_symmetry_space_group_name_H-M    P1
_symmetry_Int_Tables_number       1
_space_group_crystal_system       triclinic
_cell_length_a                    23.676655
_cell_length_b                    30.777453
_cell_length_c                    19.394604
_cell_angle_alpha                 90.175875
_cell_angle_beta                  127.385109
_cell_angle_gamma                 89.761235
_cell_volume                      11229.5814748

loop_
_atom_site_label
_atom_site_type_symbol
_atom_type_description
_atom_site_fract_x
_atom_site_fract_y
_atom_site_fract_z
_atom_type_partial_charge
C1    C     C_R   0.691757 0.809349 0.881208 0.949218
C2    C     C_R   0.308243 0.190651 0.118791 0.949218
C3    C     C_R   0.308162 0.809409 0.118725 0.944128
C4    C     C_R   0.691838 0.190591 0.881275 0.944130
C5    C     C_R   0.191757 0.309349 0.881208 0.949218
C6    C     C_R   0.808243 0.690651 0.118791 0.949218
C7    C     C_R   0.808162 0.309409 0.118725 0.944130
C8    C     C_R   0.191838 0.690591 0.881275 0.944130
C9    C     C_R   0.670324 0.841614 0.748239 0.037355
C10   C     C_R   0.329676 0.158386 0.251761 0.037355
C11   C     C_R   0.296550 0.877437 0.181372 0.034039
C12   C     C_R   0.703450 0.122563 0.818627 0.034039
C13   C     C_R   0.170324 0.341614 0.748239 0.037355
C14   C     C_R   0.829676 0.658386 0.251761 0.037355
C15   C     C_R   0.796550 0.377436 0.181372 0.034039
C16   C     C_R   0.203450 0.622564 0.818628 0.034039
C17   C     C_R   0.660055 0.842653 0.813735 -0.114030
C18   C     C_R   0.339945 0.157347 0.186265 -0.114030
C19   C     C_R   0.339601 0.843267 0.185253 -0.119296
C20   C     C_R   0.660399 0.156733 0.814747 -0.119295
C21   C     C_R   0.160055 0.342653 0.813735 -0.114030
C22   C     C_R   0.839945 0.657347 0.186265 -0.114030
C23   C     C_R   0.839601 0.343267 0.185253 -0.119295
C24   C     C_R   0.160399 0.656733 0.814747 -0.119295
C25   C     C_R   0.615242 0.874483 0.810998 -0.033120
C26   C     C_R   0.384758 0.125517 0.189002 -0.033119
C27   C     C_R   0.414302 0.843312 0.250781 -0.037587
C28   C     C_R   0.585697 0.156687 0.749220 -0.037587
C29   C     C_R   0.115242 0.374483 0.810998 -0.033119
C30   C     C_R   0.884758 0.625517 0.189002 -0.033119
C31   C     C_R   0.914302 0.343313 0.250780 -0.037587
C32   C     C_R   0.085698 0.656687 0.749220 -0.037587
C33   C     C_R   0.583585 0.905590 0.745918 -0.263997
C34   C     C_R   0.416415 0.094410 0.254082 -0.263998
C35   C     C_R   0.444662 0.875786 0.313218 -0.264701
C36   C     C_R   0.555337 0.124214 0.686783 -0.264703
C37   C     C_R   0.083585 0.405590 0.745918 -0.263998
C38   C     C_R   0.916416 0.594410 0.254083 -0.263998
C39   C     C_R   0.944662 0.375786 0.313217 -0.264703
C40   C     C_R   0.055337 0.624214 0.686783 -0.264702
C41   C     C_R   0.590186 0.903863 0.679362 -0.058523
C42   C     C_R   0.409814 0.096137 0.320638 -0.058523
C43   C     C_R   0.404129 0.910319 0.307949 -0.074138
C44   C     C_R   0.595871 0.089681 0.692051 -0.074139
C45   C     C_R   0.090186 0.403863 0.679362 -0.058523
C46   C     C_R   0.909814 0.596137 0.320638 -0.058524
C47   C     C_R   0.904129 0.410319 0.307949 -0.074139
C48   C     C_R   0.095871 0.589681 0.692051 -0.074139
C49   C     C_R   0.060667 0.558118 0.621603 0.783963
C50   C     C_R   0.939333 0.441882 0.378397 0.783964
C51   C     C_R   0.941914 0.560938 0.383971 0.786270
C52   C     C_R   0.058086 0.439061 0.616029 0.786269
C53   C     C_R   0.560666 0.058118 0.621603 0.783963
C54   C     C_R   0.439333 0.941882 0.378397 0.783964
C55   C     C_R   0.441914 0.060938 0.383971 0.786270
C56   C     C_R   0.558086 0.939062 0.616029 0.786269
C57   C     C_R   0.641567 0.750432 0.999290 0.919833
C58   C     C_R   0.358433 0.249568 0.000710 0.919833
C59   C     C_R   0.358324 0.750252 0.000518 0.913042
C60   C     C_R   0.641676 0.249748 0.999482 0.913042
C61   C     C_R   0.141567 0.250432 0.999290 0.919833
C62   C     C_R   0.858433 0.749568 0.000710 0.919833
C63   C     C_R   0.858324 0.250252 0.000518 0.913043
C64   C     C_R   0.141676 0.749748 0.999482 0.913041
C65   C     C_1   0.580786 0.750588 0.999528 -0.120344
C66   C     C_1   0.419214 0.249412 0.000472 -0.120344
C67   C     C_1   0.419243 0.750367 0.000573 -0.119490
C68   C     C_1   0.580757 0.249633 0.999427 -0.119490
C69   C     C_1   0.080786 0.250588 0.999528 -0.120344
C70   C     C_1   0.919214 0.749412 0.000472 -0.120344
C71   C     C_1   0.919243 0.250367 0.000573 -0.119490
C72   C     C_1   0.080757 0.749633 0.999427 -0.119489
C73   C     C_1   0.529898 0.750573 0.999918 0.013961
C74   C     C_1   0.470102 0.249427 0.000082 0.013961
C75   C     C_1   0.470218 0.750468 0.000360 0.015475
C76   C     C_1   0.529782 0.249532 0.999639 0.015475
C77   C     C_1   0.029898 0.250573 0.999918 0.013961
C78   C     C_1   0.970101 0.749427 0.000082 0.013961
C79   C     C_1   0.970218 0.250468 0.000360 0.015475
C80   C     C_1   0.029782 0.749532 0.999640 0.015474
C81   C     C_R   0.719964 0.813413 0.751647 0.427993
C82   C     C_R   0.280035 0.186587 0.248353 0.427993
C83   C     C_R   0.220719 0.877325 0.123189 0.424636
C84   C     C_R   0.779281 0.122676 0.876810 0.424635
C85   C     C_R   0.219965 0.313413 0.751647 0.427993
C86   C     C_R   0.780035 0.686587 0.248353 0.427993
C87   C     C_R   0.720719 0.377324 0.123190 0.424635
C88   C     C_R   0.279281 0.622675 0.876810 0.424635
C89   C     C_R   0.720213 0.809848 0.679484 -0.307358
C90   C     C_R   0.279787 0.190151 0.320516 -0.307358
C91   C     C_R   0.182571 0.914987 0.113638 -0.315689
C92   C     C_R   0.817430 0.085014 0.886360 -0.315688
C93   C     C_R   0.220213 0.309849 0.679484 -0.307358
C94   C     C_R   0.779787 0.690151 0.320516 -0.307358
C95   C     C_R   0.682570 0.414986 0.113640 -0.315689
C96   C     C_R   0.317430 0.585014 0.886360 -0.315689
C97   C     C_R   0.674054 0.834435 0.605070 0.017180
C98   C     C_R   0.325946 0.165565 0.394930 0.017181
C99   C     C_R   0.217562 0.952125 0.162498 0.006034
C100  C     C_R   0.782439 0.047875 0.837501 0.006034
C101  C     C_R   0.174054 0.334435 0.605070 0.017181
C102  C     C_R   0.825945 0.665565 0.394930 0.017181
C103  C     C_R   0.717561 0.452125 0.162499 0.006034
C104  C     C_R   0.282438 0.547875 0.837501 0.006034
C105  C     C_R   0.629352 0.864637 0.604019 -0.148702
C106  C     C_R   0.370648 0.135363 0.395981 -0.148701
C107  C     C_R   0.291229 0.950854 0.225628 -0.151073
C108  C     C_R   0.708771 0.049146 0.774372 -0.151074
C109  C     C_R   0.129352 0.364637 0.604019 -0.148701
C110  C     C_R   0.870648 0.635363 0.395981 -0.148702
C111  C     C_R   0.791229 0.450854 0.225628 -0.151073
C112  C     C_R   0.208771 0.549146 0.774372 -0.151074
C113  C     C_R   0.629837 0.870319 0.676771 0.005502
C114  C     C_R   0.370162 0.129681 0.323228 0.005502
C115  C     C_R   0.330775 0.913065 0.238865 -0.008191
C116  C     C_R   0.669225 0.086936 0.761134 -0.008190
C117  C     C_R   0.129837 0.370319 0.676771 0.005502
C118  C     C_R   0.870162 0.629681 0.323228 0.005502
C119  C     C_R   0.830775 0.413064 0.238865 -0.008191
C120  C     C_R   0.169225 0.586936 0.761135 -0.008190
Cu1   Cu    Cu3+1 0.719090 0.719080 0.938180 1.034302
Cu2   Cu    Cu3+1 0.280910 0.280920 0.061820 1.034302
Cu3   Cu    Cu3+1 0.280910 0.719080 0.061820 1.031231
Cu4   Cu    Cu3+1 0.719090 0.280920 0.938180 1.031233
Cu5   Cu    Cu3+1 0.219090 0.219080 0.938180 1.034302
Cu6   Cu    Cu3+1 0.780910 0.780920 0.061820 1.034302
Cu7   Cu    Cu3+1 0.780910 0.219080 0.061820 1.031233
Cu8   Cu    Cu3+1 0.219090 0.780920 0.938180 1.031232
Cu9   Cu    Cu3+1 0.944200 0.500000 0.499990 1.003050
Cu10  Cu    Cu3+1 0.055800 0.500000 0.500010 1.003050
Cu11  Cu    Cu3+1 0.444200 0.000000 0.499990 1.003049
Cu12  Cu    Cu3+1 0.555800 0.000000 0.500010 1.003050
H1    H     H_    0.757162 0.787866 0.681671 0.130970
H2    H     H_    0.242837 0.212134 0.318329 0.130970
H3    H     H_    0.125046 0.915250 0.067880 0.130301
H4    H     H_    0.874955 0.084751 0.932118 0.130301
H5    H     H_    0.257162 0.287866 0.681671 0.130970
H6    H     H_    0.742837 0.712133 0.318329 0.130970
H7    H     H_    0.625045 0.415249 0.067882 0.130301
H8    H     H_    0.374955 0.584751 0.932119 0.130301
H9    H     H_    0.593287 0.883011 0.545170 0.178846
H10   H     H_    0.406713 0.116989 0.454830 0.178846
H11   H     H_    0.317518 0.979944 0.263176 0.188574
H12   H     H_    0.682482 0.020056 0.736823 0.188575
H13   H     H_    0.093287 0.383011 0.545170 0.178846
H14   H     H_    0.906713 0.616989 0.454830 0.178846
H15   H     H_    0.817517 0.479944 0.263177 0.188575
H16   H     H_    0.182482 0.520056 0.736823 0.188574
H17   H     H_    0.551996 0.931188 0.746081 0.150128
H18   H     H_    0.448004 0.068812 0.253919 0.150129
H19   H     H_    0.501180 0.874738 0.365898 0.190143
H20   H     H_    0.498820 0.125262 0.634103 0.190143
H21   H     H_    0.051996 0.431188 0.746081 0.150129
H22   H     H_    0.948004 0.568812 0.253919 0.150129
H23   H     H_    0.001180 0.374738 0.365897 0.190143
H24   H     H_    0.998820 0.625262 0.634103 0.190143
O1    O     O_R   0.678810 0.768970 0.857610 -0.573177
O2    O     O_R   0.321190 0.231030 0.142390 -0.573177
O3    O     O_R   0.321190 0.768970 0.142390 -0.575012
O4    O     O_R   0.678810 0.231030 0.857610 -0.575010
O5    O     O_R   0.178810 0.268970 0.857610 -0.573177
O6    O     O_R   0.821190 0.731030 0.142390 -0.573176
O7    O     O_R   0.821190 0.268970 0.142390 -0.575010
O8    O     O_R   0.178810 0.731030 0.857610 -0.575011
O9    O     O_R   0.730990 0.821160 0.961990 -0.570165
O10   O     O_R   0.269010 0.178840 0.038010 -0.570165
O11   O     O_R   0.269010 0.821160 0.038010 -0.567676
O12   O     O_R   0.730990 0.178840 0.961990 -0.567677
O13   O     O_R   0.230990 0.321160 0.961990 -0.570165
O14   O     O_R   0.769010 0.678840 0.038010 -0.570164
O15   O     O_R   0.769010 0.321160 0.038010 -0.567677
O16   O     O_R   0.230990 0.678840 0.961990 -0.567677
O17   O     O_R   0.642490 0.723880 0.947790 -0.595193
O18   O     O_R   0.357510 0.276120 0.052210 -0.595193
O19   O     O_R   0.357510 0.723880 0.052210 -0.546392
O20   O     O_R   0.642490 0.276120 0.947790 -0.546391
O21   O     O_R   0.142490 0.223880 0.947790 -0.595193
O22   O     O_R   0.857510 0.776120 0.052210 -0.595193
O23   O     O_R   0.857510 0.223880 0.052210 -0.546391
O24   O     O_R   0.142490 0.776120 0.947790 -0.546391
O25   O     O_R   0.694660 0.776070 0.052170 -0.546301
O26   O     O_R   0.305340 0.223930 0.947830 -0.546301
O27   O     O_R   0.305340 0.776070 0.947830 -0.594888
O28   O     O_R   0.694660 0.223930 0.052170 -0.594888
O29   O     O_R   0.194660 0.276070 0.052170 -0.546301
O30   O     O_R   0.805340 0.723930 0.947830 -0.546301
O31   O     O_R   0.805340 0.276070 0.947830 -0.594888
O32   O     O_R   0.194660 0.723930 0.052170 -0.594888
O33   O     O_R   0.997960 0.545070 0.590160 -0.578156
O34   O     O_R   0.002040 0.454930 0.409840 -0.578156
O35   O     O_R   0.002040 0.545070 0.409840 -0.585310
O36   O     O_R   0.997960 0.454930 0.590160 -0.585310
O37   O     O_R   0.497960 0.045070 0.590160 -0.578156
O38   O     O_R   0.502040 0.954930 0.409840 -0.578156
O39   O     O_R   0.502040 0.045070 0.409840 -0.585310
O40   O     O_R   0.497960 0.954930 0.590160 -0.585310
O41   O     O_R   0.092180 0.545060 0.590150 -0.583591
O42   O     O_R   0.907820 0.454940 0.409850 -0.583591
O43   O     O_R   0.907820 0.545060 0.409850 -0.576031
O44   O     O_R   0.092180 0.454940 0.590150 -0.576030
O45   O     O_R   0.592180 0.045060 0.590150 -0.583591
O46   O     O_R   0.407820 0.954940 0.409850 -0.583591
O47   O     O_R   0.407820 0.045060 0.409850 -0.576031
O48   O     O_R   0.592180 0.954940 0.590150 -0.576031
C121  C     C_2   0.597904 0.876600 0.872934 0.367414
H25   H     H_    0.581179 0.907267 0.883215 0.078406
O49   O     O_2   0.598176 0.844284 0.909396 -0.560851
C122  C     C_2   0.402096 0.123400 0.127066 0.367412
H26   H     H_    0.418821 0.092733 0.116785 0.078407
O50   O     O_2   0.401824 0.155716 0.090604 -0.560851
C123  C     C_2   0.464005 0.811055 0.256653 0.381585
H27   H     H_    0.514427 0.804353 0.319135 0.104821
O51   O     O_2   0.451629 0.793557 0.192258 -0.560364
C124  C     C_2   0.535994 0.188944 0.743348 0.381579
H28   H     H_    0.485571 0.195645 0.680867 0.104825
O52   O     O_2   0.548372 0.206444 0.807743 -0.560365
C125  C     C_2   0.097904 0.376600 0.872934 0.367413
H29   H     H_    0.081179 0.407267 0.883215 0.078407
O53   O     O_2   0.098176 0.344284 0.909396 -0.560851
C126  C     C_2   0.902096 0.623400 0.127067 0.367412
H30   H     H_    0.918823 0.592733 0.116786 0.078407
O54   O     O_2   0.901823 0.655716 0.090603 -0.560851
C127  C     C_2   0.964006 0.311056 0.256651 0.381580
H31   H     H_    0.014429 0.304355 0.319133 0.104825
O55   O     O_2   0.951628 0.293556 0.192257 -0.560365
C128  C     C_2   0.035994 0.688944 0.743348 0.381582
H32   H     H_    0.985572 0.695645 0.680867 0.104824
O56   O     O_2   0.048371 0.706443 0.807743 -0.560365
O57   O     O_3   0.770763 0.791636 0.827104 -0.757997
H33   H     H_    0.801169 0.774081 0.818346 0.319866
O58   O     O_3   0.229237 0.208364 0.172896 -0.757997
H34   H     H_    0.198830 0.225919 0.181654 0.319866
O59   O     O_3   0.184375 0.839755 0.080333 -0.757962
H35   H     H_    0.132453 0.845284 0.043967 0.319985
O60   O     O_3   0.815625 0.160246 0.919666 -0.757963
H36   H     H_    0.867547 0.154717 0.956031 0.319985
O61   O     O_3   0.270763 0.291636 0.827104 -0.757997
H37   H     H_    0.301170 0.274081 0.818346 0.319866
O62   O     O_3   0.729237 0.708364 0.172896 -0.757997
H38   H     H_    0.698830 0.725919 0.181654 0.319866
O63   O     O_3   0.684375 0.339754 0.080334 -0.757962
H39   H     H_    0.632453 0.345283 0.043969 0.319985
O64   O     O_3   0.315625 0.660246 0.919666 -0.757962
H40   H     H_    0.367547 0.654716 0.956031 0.319985
C129  C     C_2   0.674995 0.829068 0.529922 0.360452
H41   H     H_    0.708976 0.804596 0.531615 0.072516
O65   O     O_2   0.638441 0.851953 0.465611 -0.571331
C130  C     C_2   0.325005 0.170932 0.470077 0.360452
H42   H     H_    0.291024 0.195404 0.468385 0.072515
O66   O     O_2   0.361558 0.148047 0.534389 -0.571333
C131  C     C_2   0.176031 0.991678 0.148480 0.385864
H43   H     H_    0.118660 0.991687 0.099912 0.063412
O67   O     O_2   0.205141 0.024687 0.190628 -0.533861
C132  C     C_2   0.823970 0.008323 0.851518 0.385864
H44   H     H_    0.881341 0.008314 0.900086 0.063412
O68   O     O_2   0.794860 0.975314 0.809370 -0.533860
C133  C     C_2   0.174995 0.329068 0.529923 0.360453
H45   H     H_    0.208976 0.304596 0.531615 0.072515
O69   O     O_2   0.138442 0.351953 0.465611 -0.571333
C134  C     C_2   0.825005 0.670932 0.470077 0.360452
H46   H     H_    0.791024 0.695403 0.468384 0.072516
O70   O     O_2   0.861558 0.648047 0.534389 -0.571332
C135  C     C_2   0.676030 0.491677 0.148482 0.385865
H47   H     H_    0.618659 0.491686 0.099914 0.063412
O71   O     O_2   0.705140 0.524686 0.190630 -0.533861
C136  C     C_2   0.323970 0.508323 0.851518 0.385865
H48   H     H_    0.381341 0.508314 0.900086 0.063412
O72   O     O_2   0.294860 0.475313 0.809370 -0.533861

loop_
_geom_bond_atom_site_label_1
_geom_bond_atom_site_label_2
_ccdc_geom_bond_type
C96   H8    S    
C60   O28   A    
Cu12  O38   S    
C82   O58   S    
C88   C96   A    
C61   O21   A    
C54   O38   A    
C51   O35   A    
C7    O15   A    
C2    C18   S    
C53   O37   A    
C69   C77   T    
O62   H38   S    
C34   C42   A    
C29   C37   A    
Cu6   O9    S    
C110  C118  A    
C88   O64   S    
C71   C79   T    
C50   O42   A    
C109  C117  A    
C135  H47   S    
C48   C120  A    
C49   O41   A    
C121  H25   S    
C130  H42   S    
C46   C118  A    
Cu12  O45   S    
C132  H44   S    
C74   C76   S    
C106  C114  A    
C49   O33   A    
C105  C113  A    
C104  C136  S    
C133  H45   S    
C51   O43   A    
C59   O19   A    
C16   C120  A    
C93   H5    S    
C105  H9    S    
C90   H2    S    
C25   C121  S    
C131  O67   D    
C70   C78   T    
C101  C109  A    
O64   H40   S    
C66   C74   T    
Cu9   O36   S    
Cu4   O4    S    
Cu8   O8    S    
C65   C73   T    
C62   C70   S    
C103  C111  A    
O63   H39   S    
C52   O36   A    
C94   C102  A    
Cu3   O32   S    
Cu11  O46   S    
C40   C48   A    
C126  H30   S    
C132  O68   D    
C86   C94   A    
C59   C67   S    
Cu1   O30   S    
C56   O40   A    
C85   C93   A    
C44   C53   S    
C26   C34   A    
Cu1   O17   S    
C83   O59   S    
C95   C103  A    
Cu7   O12   S    
C14   C118  A    
C101  C133  S    
Cu8   O11   S    
O60   H36   S    
C15   C119  A    
C3    C19   S    
Cu8   O24   S    
Cu10  O41   S    
C35   C43   A    
O59   H35   S    
C2    O10   A    
Cu3   O16   S    
C10   C114  A    
C62   O30   A    
C110  H14   S    
C43   C115  A    
C15   C23   A    
C29   C125  S    
Cu1   O14   S    
C60   C68   S    
C8    O16   A    
C81   C89   A    
C16   C24   A    
Cu1   O1    S    
O61   H37   S    
C3    O3    A    
Cu7   O28   S    
C73   C75   S    
C92   H4    S    
Cu8   O27   S    
C35   H19   S    
C81   O57   S    
C100  C132  S    
C5    O13   A    
C57   O25   A    
C19   C27   A    
C130  O66   D    
C61   O29   A    
C106  H10   S    
C47   C50   S    
C121  O49   D    
C28   C124  S    
C58   O18   A    
Cu5   O5    S    
C100  C108  A    
Cu12  O48   S    
Cu10  O44   S    
C3    O11   A    
C6    O6    A    
C131  H43   S    
C84   O60   S    
C89   H1    S    
C33   C41   A    
C14   C86   A    
C127  H31   S    
C99   C131  S    
C8    O8    A    
C93   C101  A    
C136  H48   S    
C112  C120  A    
C17   C25   A    
C124  H28   S    
C36   H20   S    
Cu2   O29   S    
C20   C28   A    
C12   C84   A    
C27   C35   A    
C125  H29   S    
Cu2   O18   S    
C39   C47   A    
C7    O7    A    
C46   C51   S    
C10   C82   A    
C53   O45   A    
C111  H15   S    
C4    O12   A    
C89   C97   A    
C104  C112  A    
C133  O69   D    
C94   H6    S    
C23   C31   A    
C7    C23   S    
C42   C114  A    
C24   C32   A    
C41   C56   S    
C98   C130  S    
O57   H33   S    
C37   H21   S    
C11   C115  A    
Cu12  O39   S    
Cu11  O40   S    
C43   C54   S    
Cu3   O19   S    
C123  H27   S    
C1    O9    A    
C2    O2    A    
Cu2   O13   S    
C55   O47   A    
C18   C26   A    
C12   C20   A    
C25   C33   A    
C27   C123  S    
C86   O62   S    
Cu2   O2    S    
C77   C79   S    
C13   C21   A    
C1    O1    A    
C64   O32   A    
C68   C76   T    
C59   O27   A    
C78   C80   S    
C107  C115  A    
Cu9   O43   S    
Cu9   O33   S    
C136  O72   D    
Cu4   Cu7   S    
C31   C127  S    
C111  C119  A    
C134  O70   D    
C48   C49   S    
C123  O51   D    
C63   C71   S    
C63   O31   A    
C129  O65   D    
C39   H23   S    
C60   O20   A    
C57   O17   A    
C95   H7    S    
C36   C44   A    
C67   C75   T    
C38   H22   S    
Cu5   O21   S    
C37   C45   A    
Cu11  Cu12  S    
C108  H12   S    
C32   C40   A    
Cu11  O47   S    
Cu10  O35   S    
C92   C100  A    
C58   C66   S    
Cu9   Cu10  S    
C6    O14   A    
C9    C17   A    
C135  O71   D    
Cu11  O37   S    
C87   C95   A    
C28   C36   A    
Cu7   O7    S    
C22   C30   A    
Cu6   O6    S    
Cu5   O26   S    
C122  H26   S    
C30   C126  S    
C1    C17   S    
C102  C134  S    
C26   C122  S    
Cu9   O42   S    
C124  O52   D    
C32   C128  S    
C134  H46   S    
C82   C90   A    
C62   O22   A    
Cu4   O31   S    
C13   C117  A    
C127  O55   D    
C102  C110  A    
C109  H13   S    
C12   C116  A    
C125  O53   D    
C99   C107  A    
C128  O56   D    
C98   C106  A    
C126  O54   D    
C58   O26   A    
C91   H3    S    
Cu7   O23   S    
C45   C52   S    
C108  C116  A    
Cu2   Cu5   S    
C96   C104  A    
Cu5   O10   S    
C41   C113  A    
C97   C105  A    
Cu1   Cu6   S    
C72   C80   T    
C54   O46   A    
C52   O44   A    
C38   C46   A    
C97   C129  S    
C14   C22   A    
Cu3   Cu8   S    
C4    O4    A    
Cu4   O15   S    
C21   C29   A    
C10   C18   A    
C42   C55   S    
C64   O24   A    
C83   C91   A    
C47   C119  A    
C8    C24   S    
C31   C39   A    
Cu6   O22   S    
C85   O61   S    
C61   C69   S    
C34   H18   S    
C11   C19   A    
C50   O34   A    
C45   C117  A    
Cu3   O3    S    
C56   O48   A    
C87   O63   S    
C55   O39   A    
C63   O23   A    
C4    C20   S    
C112  H16   S    
C11   C83   A    
C5    C21   S    
C44   C116  A    
C122  O50   D    
C128  H32   S    
C15   C87   A    
C13   C85   A    
O58   H34   S    
C16   C88   A    
C9    C113  A    
C103  C135  S    
C40   H24   S    
Cu6   O25   S    
C33   H17   S    
C5    O5    A    
C84   C92   A    
C30   C38   A    
C91   C99   A    
Cu4   O20   S    
C129  H41   S    
C107  H11   S    
C90   C98   A    
Cu10  O34   S    
C64   C72   S    
C9    C81   A    
C57   C65   S    
C6    C22   S    
