data_mof_unit_26977.cif
_audit_creation_date              2012-12-10T20:53:11-0500
_audit_creation_method            fapswitch 2.2
_symmetry_space_group_name_H-M    P1
_symmetry_Int_Tables_number       1
_space_group_crystal_system       triclinic
_cell_length_a                    18.359307
_cell_length_b                    18.35293
_cell_length_c                    18.35001
_cell_angle_alpha                 59.949064
_cell_angle_beta                  59.845936
_cell_angle_gamma                 59.898738
_cell_volume                      4361.89569697

loop_
_atom_site_label
_atom_site_type_symbol
_atom_type_description
_atom_site_fract_x
_atom_site_fract_y
_atom_site_fract_z
_atom_type_partial_charge
C1    C     C_R   0.389873 0.110219 0.110138 0.786584
C2    C     C_R   0.384169 0.809688 0.778443 -0.125591
C3    C     C_R   0.912564 0.557275 0.032878 0.071652
C4    C     C_R   0.473875 0.960208 0.094390 0.074050
C5    C     C_R   0.525816 0.039813 0.905557 0.074212
C6    C     C_R   0.945927 0.945982 0.553773 -0.159103
C7    C     C_R   0.054129 0.053921 0.446168 -0.158771
C8    C     C_R   0.945893 0.553676 0.946026 -0.161312
C9    C     C_R   0.054153 0.446090 0.053868 -0.161569
C10   C     C_R   0.553913 0.945936 0.945929 -0.153350
C11   C     C_R   0.445997 0.054093 0.054019 -0.153085
C12   C     C_3   0.227466 0.558373 0.390956 -0.856215
C13   C     C_R   0.201127 0.236528 0.607176 -0.185820
C14   C     C_3   0.712461 0.479229 0.721710 -0.802462
C15   C     C_3   0.529555 0.403419 0.239176 -0.844755
C16   C     C_3   0.429405 0.650505 0.730560 -0.830773
C17   C     C_3   0.407986 0.237520 0.531632 -0.844698
C18   C     C_3   0.672669 0.692583 0.546743 -0.785691
C19   C     C_R   0.806446 0.778039 0.379690 -0.130746
C20   C     C_R   0.180759 0.572461 0.281637 0.284618
C21   C     C_R   0.858923 0.391092 0.737873 0.274047
C22   C     C_R   0.561897 0.287068 0.190396 0.279788
C23   C     C_R   0.425224 0.718071 0.817817 0.276536
C24   C     C_R   0.289764 0.191853 0.563406 0.277859
C25   C     C_R   0.715455 0.818277 0.422292 0.268194
C26   C     C_R   0.088643 0.585307 0.313802 0.112090
C27   C     C_R   0.610117 0.889806 0.889827 0.786696
C28   C     C_R   0.940210 0.409567 0.690200 0.066445
C29   C     C_R   0.582680 0.317052 0.096830 0.114104
C30   C     C_R   0.415891 0.684707 0.909330 0.072085
C31   C     C_R   0.317677 0.098963 0.582234 0.117967
C32   C     C_R   0.684460 0.908471 0.415968 0.069794
C33   C     C_R   0.040284 0.638030 0.254329 -0.208711
C34   C     C_R   0.995188 0.385534 0.736535 -0.171865
C35   C     C_R   0.644050 0.256831 0.049663 -0.198979
C36   C     C_R   0.364822 0.743003 0.959137 -0.172970
C37   C     C_R   0.256376 0.053120 0.643453 -0.203991
C38   C     C_R   0.110181 0.110122 0.389925 0.784929
C39   C     C_R   0.745021 0.955210 0.369527 -0.165601
C40   C     C_R   0.082371 0.678319 0.164059 -0.117907
C41   C     C_R   0.970840 0.342645 0.828873 -0.116786
C42   C     C_R   0.684797 0.167946 0.094290 -0.124467
C43   C     C_R   0.323873 0.833495 0.919121 -0.124120
C44   C     C_R   0.168720 0.098249 0.686810 -0.127014
C45   C     C_R   0.835180 0.913967 0.328266 -0.121479
C46   C     C_R   0.173225 0.665732 0.132190 -0.150452
C47   C     C_R   0.891619 0.322967 0.875853 -0.169124
C48   C     C_R   0.664260 0.138170 0.186498 -0.152546
C49   C     C_R   0.889883 0.889798 0.610069 0.784791
C50   C     C_R   0.333822 0.866835 0.828918 -0.174900
C51   C     C_R   0.141263 0.189645 0.669046 -0.150304
C52   C     C_R   0.865782 0.825682 0.333083 -0.175305
C53   C     C_R   0.986407 0.591637 0.463749 -0.297743
C54   C     C_R   0.019119 0.407788 0.536617 -0.298552
C55   C     C_R   0.590552 0.465086 0.990117 -0.291244
C56   C     C_R   0.409716 0.534544 0.009468 -0.269721
C57   C     C_R   0.465429 0.991611 0.590123 -0.297061
C58   C     C_R   0.534598 0.009413 0.409683 -0.293137
C59   C     C_R   0.948154 0.552000 0.555459 -0.040208
C60   C     C_R   0.110234 0.389907 0.110053 0.783928
C61   C     C_R   0.057233 0.447376 0.444964 -0.026237
C62   C     C_R   0.552621 0.554870 0.944539 -0.060814
C63   C     C_R   0.447316 0.445084 0.056103 -0.029439
C64   C     C_R   0.554964 0.944962 0.552497 -0.032781
C65   C     C_R   0.445155 0.056455 0.447208 -0.027771
C66   C     C_R   0.967572 0.458261 0.592823 -0.008620
C67   C     C_R   0.043126 0.540127 0.408393 0.034394
C68   C     C_R   0.460990 0.590075 0.954281 -0.006289
C69   C     C_R   0.538678 0.410103 0.047274 0.032278
C70   C     C_R   0.590127 0.954396 0.460928 -0.011415
C71   C     C_R   0.889891 0.610062 0.889801 0.784833
C72   C     C_R   0.410357 0.048431 0.538355 0.030845
C73   C     C_R   0.111113 0.390361 0.389757 0.786758
C74   C     C_R   0.890444 0.609509 0.610286 0.783405
C75   C     C_R   0.390363 0.389784 0.111042 0.796305
C76   C     C_R   0.609614 0.610201 0.889227 0.783398
C77   C     C_R   0.389808 0.111160 0.390351 0.794753
C78   C     C_R   0.610186 0.889392 0.609582 0.793062
C79   C     C_R   0.178005 0.929723 0.392956 -0.144736
C80   C     C_R   0.821941 0.070246 0.606742 -0.146494
C81   C     C_R   0.175024 0.386624 0.932321 -0.145661
C82   C     C_R   0.222406 0.612721 0.190472 -0.181271
C83   C     C_R   0.824642 0.612373 0.067899 -0.145513
C84   C     C_R   0.448232 0.919264 0.188487 -0.149089
C85   C     C_R   0.551112 0.080741 0.811461 -0.148796
C86   C     C_R   0.211496 0.842598 0.393373 -0.143539
C87   C     C_R   0.788374 0.157413 0.606211 -0.141318
C88   C     C_R   0.206762 0.383406 0.846901 -0.143231
C89   C     C_R   0.792517 0.614851 0.153688 -0.142577
C90   C     C_R   0.476270 0.826575 0.227308 -0.151621
C91   C     C_R   0.522691 0.173420 0.772636 -0.153106
C92   C     C_R   0.157833 0.789173 0.446577 -0.150292
C93   C     C_R   0.836285 0.346644 0.830701 -0.132795
C94   C     C_R   0.842043 0.210830 0.553055 -0.144349
C95   C     C_R   0.152969 0.436236 0.793733 -0.163735
C96   C     C_R   0.846205 0.561817 0.206967 -0.151886
C97   C     C_R   0.530108 0.772917 0.173669 -0.154912
C98   C     C_R   0.468902 0.227082 0.826272 -0.153237
C99   C     C_R   0.070418 0.822586 0.499663 -0.147590
C100  C     C_R   0.929526 0.177378 0.500097 -0.149994
C101  C     C_R   0.067248 0.492727 0.825623 -0.157081
C102  C     C_R   0.932248 0.505944 0.174776 -0.149646
C103  C     C_R   0.556178 0.811646 0.080910 -0.149911
C104  C     C_R   0.602956 0.197153 0.234553 -0.178967
C105  C     C_R   0.443237 0.188369 0.919029 -0.148642
C106  C     C_R   0.034327 0.911381 0.499620 0.072521
C107  C     C_R   0.965683 0.088546 0.500237 0.073098
C108  C     C_R   0.032690 0.496188 0.912912 0.074061
C109  C     C_R   0.967139 0.503154 0.087172 0.073854
C110  C     C_R   0.528427 0.905667 0.039877 0.074355
C111  C     C_R   0.471282 0.094357 0.960068 0.074214
C112  C     C_R   0.088885 0.965758 0.445439 0.071455
C113  C     C_R   0.911127 0.034173 0.554401 0.071787
C114  C     C_R   0.087317 0.442156 0.967161 0.071168
H1    H     H_    0.815604 0.278748 0.552305 0.134075
H2    H     H_    0.340008 0.561526 0.015198 0.171657
H3    H     H_    0.438588 0.986233 0.659779 0.173240
H4    H     H_    0.561522 0.014597 0.340089 0.175417
H5    H     H_    0.223082 0.967894 0.351605 0.127566
H6    H     H_    0.776858 0.032080 0.648052 0.127793
H7    H     H_    0.220439 0.345604 0.970025 0.130841
H8    H     H_    0.779295 0.653481 0.030116 0.130747
H9    H     H_    0.406322 0.958276 0.232928 0.111227
H10   H     H_    0.592966 0.041721 0.767026 0.110981
H11   H     H_    0.279603 0.816250 0.352687 0.135881
H12   H     H_    0.184229 0.721280 0.447290 0.134682
H13   H     H_    0.720208 0.183790 0.646780 0.137874
H14   H     H_    0.273676 0.340224 0.821610 0.138175
H15   H     H_    0.725380 0.657581 0.179183 0.139571
H16   H     H_    0.456099 0.796283 0.299334 0.128166
H17   H     H_    0.542522 0.203697 0.700613 0.127907
H18   H     H_    0.032059 0.777695 0.541013 0.128833
H19   H     H_    0.967883 0.222270 0.458755 0.129052
H20   H     H_    0.029107 0.533828 0.780620 0.136041
H21   H     H_    0.970327 0.464609 0.219844 0.133285
H22   H     H_    0.598078 0.767195 0.041915 0.111643
H23   H     H_    0.820812 0.563307 0.273900 0.133101
H24   H     H_    0.401337 0.232821 0.958022 0.111293
H25   H     H_    0.205593 0.696564 0.062051 0.140972
H26   H     H_    0.872951 0.289306 0.947431 0.142306
H27   H     H_    0.695398 0.069001 0.220615 0.141598
H28   H     H_    0.302971 0.937301 0.798114 0.141777
H29   H     H_    0.073205 0.224093 0.702884 0.146931
H30   H     H_    0.935709 0.794269 0.300643 0.143101
H31   H     H_    0.293047 0.602718 0.164835 0.132089
H32   H     H_    0.775640 0.330157 0.868133 0.127596
H33   H     H_    0.587217 0.172938 0.306233 0.137692
H34   H     H_    0.178027 0.434107 0.727116 0.128702
H35   H     H_    0.392485 0.837025 0.708108 0.134152
H36   H     H_    0.178764 0.307632 0.593416 0.135129
H37   H     H_    0.831224 0.709744 0.382305 0.129294
H38   H     H_    0.970289 0.646643 0.277643 0.130385
H39   H     H_    0.056711 0.400790 0.700976 0.126586
H40   H     H_    0.658523 0.278371 0.978549 0.131803
H41   H     H_    0.357864 0.718419 0.028875 0.133861
H42   H     H_    0.276454 0.982366 0.657083 0.131134
H43   H     H_    0.722260 0.023655 0.365841 0.132722
H44   H     H_    0.044642 0.718726 0.118594 0.141765
H45   H     H_    0.446955 0.299046 0.795909 0.128281
H46   H     H_    0.013477 0.324656 0.864000 0.151280
H47   H     H_    0.731669 0.121841 0.057453 0.139911
H48   H     H_    0.285090 0.878023 0.957920 0.141190
H49   H     H_    0.121952 0.062321 0.734127 0.140609
H50   H     H_    0.881404 0.950515 0.292525 0.140134
H51   H     H_    0.297495 0.481974 0.308495 0.224800
H52   H     H_    0.265922 0.508413 0.437222 0.243073
H53   H     H_    0.157198 0.585992 0.431446 0.257020
H54   H     H_    0.256467 0.613004 0.345716 0.240050
H55   H     H_    0.827696 0.431092 0.625403 0.223166
H56   H     H_    0.551761 0.700946 0.204032 0.128292
H57   H     H_    0.671972 0.493572 0.684176 0.233054
H58   H     H_    0.718303 0.542643 0.708013 0.246174
H59   H     H_    0.676757 0.451700 0.793998 0.245643
H60   H     H_    0.461749 0.313779 0.304654 0.224702
H61   H     H_    0.473553 0.449095 0.276563 0.243453
H62   H     H_    0.557659 0.444661 0.169587 0.260451
H63   H     H_    0.581821 0.363128 0.271318 0.242994
H64   H     H_    0.523729 0.602448 0.788630 0.223718
H65   H     H_    0.476666 0.607394 0.688178 0.238547
H66   H     H_    0.394731 0.715856 0.688915 0.247806
H67   H     H_    0.975282 0.662718 0.435291 0.175808
H68   H     H_    0.379769 0.618154 0.787138 0.246702
H69   H     H_    0.317907 0.305429 0.464105 0.221145
H70   H     H_    0.454424 0.274047 0.475849 0.244477
H71   H     H_    0.448466 0.167474 0.559474 0.259752
H72   H     H_    0.368426 0.269406 0.584204 0.240332
H73   H     H_    0.589236 0.805725 0.479798 0.228551
H74   H     H_    0.624935 0.657008 0.576071 0.244885
H75   H     H_    0.663207 0.715102 0.597864 0.235239
H76   H     H_    0.741440 0.644824 0.528656 0.238852
H77   H     H_    0.030364 0.336692 0.565255 0.178215
H78   H     H_    0.660536 0.437925 0.983644 0.175230
N1    N     N_2   0.232370 0.515788 0.339564 -0.324989
N2    N     N_2   0.800216 0.415969 0.693790 -0.324860
N3    N     N_2   0.496758 0.345523 0.240611 -0.331578
N4    N     N_2   0.478250 0.661759 0.764069 -0.326525
N5    N     N_2   0.349228 0.240881 0.498527 -0.332145
N6    N     N_2   0.656091 0.768460 0.468803 -0.328721
O1    O     O_3   0.250000 0.250000 0.250000 -0.485796
O2    O     O_R   0.865800 0.694910 0.573470 -0.641358
O3    O     O_R   0.305090 0.426530 0.134200 -0.644347
O4    O     O_R   0.694910 0.573470 0.865800 -0.641724
O5    O     O_R   0.426530 0.134200 0.305090 -0.644283
O6    O     O_R   0.573470 0.865800 0.694910 -0.643018
O7    O     O_R   0.134190 0.426530 0.134200 -0.639228
O8    O     O_R   0.865810 0.573470 0.865800 -0.638521
O9    O     O_R   0.426530 0.134200 0.134190 -0.634533
O10   O     O_R   0.573470 0.865800 0.865810 -0.634984
O11   O     O_R   0.134200 0.134190 0.426530 -0.638800
O12   O     O_3   0.750000 0.750000 0.750000 -0.486351
O13   O     O_R   0.865800 0.865810 0.573470 -0.639724
O14   O     O_R   0.426530 0.305080 0.134210 -0.638331
O15   O     O_R   0.573470 0.694920 0.865790 -0.633208
O16   O     O_R   0.305080 0.134210 0.426530 -0.638347
O17   O     O_R   0.694920 0.865790 0.573470 -0.631909
O18   O     O_R   0.134210 0.426530 0.305080 -0.640976
O19   O     O_R   0.865790 0.573470 0.694920 -0.635112
O20   O     O_R   0.305080 0.134200 0.134200 -0.640537
O21   O     O_R   0.694920 0.865800 0.865800 -0.639177
O22   O     O_R   0.134200 0.134200 0.305080 -0.636848
O23   O     O_R   0.865800 0.865800 0.694920 -0.635572
O24   O     O_R   0.134200 0.305080 0.134200 -0.638001
O25   O     O_R   0.865800 0.694920 0.865800 -0.636533
O26   O     O_R   0.134200 0.305090 0.426530 -0.645612
Zn1   Zn    Zn3+2 0.206620 0.206630 0.380140 0.963240
Zn2   Zn    Zn3+2 0.793380 0.793370 0.619860 0.960315
Zn3   Zn    Zn3+2 0.206630 0.380140 0.206620 0.962052
Zn4   Zn    Zn3+2 0.793370 0.619860 0.793380 0.957115
Zn5   Zn    Zn3+2 0.380140 0.206620 0.206630 0.967008
Zn6   Zn    Zn3+2 0.619860 0.793380 0.793370 0.964699
Zn7   Zn    Zn3+2 0.206620 0.206620 0.206620 0.958696
Zn8   Zn    Zn3+2 0.793380 0.793380 0.793380 0.960911

loop_
_geom_bond_atom_site_label_1
_geom_bond_atom_site_label_2
_ccdc_geom_bond_type
C10   C27   S    
C80   H6    S    
C18   H75   S    
C27   O21   A    
C22   C29   A    
C20   C82   A    
C12   N1    S    
C10   C110  A    
C1    C11   S    
C35   H40   S    
O21   Zn8   S    
O26   Zn1   S    
C12   H53   S    
C87   H13   S    
C53   C59   A    
C42   H47   S    
C89   H15   S    
C106  C112  A    
C101  H20   S    
O25   Zn8   S    
C84   H9    S    
C40   C46   A    
H69   N5    S    
C98   C105  A    
O11   Zn1   S    
C99   H18   S    
C103  C110  A    
C26   C67   S    
C40   H44   S    
C45   H50   S    
C78   O6    A    
C13   H36   S    
C19   C52   A    
C80   C87   A    
C96   C102  A    
C59   C66   A    
C12   H52   S    
C16   H68   S    
C60   O7    A    
C91   H17   S    
C48   C104  A    
C87   C94   A    
C8    C108  A    
C58   H4    S    
C22   C104  A    
C7    C112  A    
O23   Zn8   S    
C85   H10   S    
C27   O10   A    
C32   C39   A    
C108  C114  A    
C35   C42   A    
O16   Zn1   S    
O1    Zn7   S    
C102  H21   S    
C107  C113  A    
C25   N6    S    
C2    C50   A    
C105  H24   S    
C13   C51   A    
C76   O15   A    
C71   O8    A    
C63   C69   A    
C17   H71   S    
C8    C71   S    
O13   Zn2   S    
C79   H5    S    
C47   H26   S    
C18   N6    S    
C95   C101  A    
C19   H37   S    
C73   O18   A    
C17   N5    S    
C1    O20   A    
C44   H49   S    
C64   C70   A    
C21   N2    S    
C90   C97   A    
O22   Zn7   S    
C16   H65   S    
C39   C45   A    
C5    C85   A    
C101  C108  A    
C14   N2    S    
C88   C95   A    
C28   C34   A    
H60   N3    S    
C91   C98   A    
C46   C82   A    
C39   H43   S    
C86   H11   S    
O12   Zn2   S    
C104  H33   S    
C62   C76   S    
C34   C41   A    
C84   C90   A    
C19   C25   A    
C38   O11   A    
C77   O5    A    
C41   C47   A    
C77   O16   A    
C29   C69   S    
C9    C109  A    
C83   C89   A    
C75   O14   A    
C33   C40   A    
C71   O25   A    
C54   H77   S    
H73   N6    S    
C11   C111  A    
O18   Zn3   S    
C23   C30   A    
C38   O22   A    
C65   C77   S    
C14   H58   S    
C3    C8    A    
C96   H23   S    
O5    Zn5   S    
C57   C72   A    
O9    Zn5   S    
C56   H2    S    
C32   C70   S    
C5    C111  A    
C45   C52   A    
C61   C73   S    
O1    Zn5   S    
H64   N4    S    
C97   H56   S    
C31   C37   A    
C13   C24   A    
H51   N1    S    
C90   H16   S    
C23   N4    S    
C42   C48   A    
C28   C66   S    
C103  H22   S    
C6    C113  A    
C16   N4    S    
C53   H67   S    
C97   C103  A    
C41   H46   S    
C61   C67   A    
C58   C65   A    
C4    C84   A    
C94   C100  A    
C17   H72   S    
C75   O3    A    
C49   O13   A    
C6    C106  A    
C56   C63   A    
C93   H32   S    
O2    Zn2   S    
C98   H45   S    
C4    C11   A    
O1    Zn1   S    
C59   C74   S    
C55   C69   A    
C79   C112  A    
C44   C51   A    
C55   C62   A    
C31   C72   S    
C21   C28   A    
C37   H42   S    
O24   Zn7   S    
C52   H30   S    
O8    Zn4   S    
C7    C107  A    
C22   N3    S    
C21   C93   A    
C9    C114  A    
C85   C91   A    
C20   N1    S    
C82   H31   S    
C64   C78   S    
C100  H19   S    
C63   C75   S    
C57   C64   A    
C57   H3    S    
C34   H39   S    
O3    Zn3   S    
C99   C106  A    
C4    C110  A    
C18   H76   S    
C100  C107  A    
C47   C93   A    
C73   O26   A    
C49   O23   A    
C92   C99   A    
O12   Zn4   S    
C15   H61   S    
C58   C70   A    
C95   H34   S    
C74   O2    A    
C14   H57   S    
C102  C109  A    
C33   H38   S    
C92   H12   S    
C78   O17   A    
C12   H54   S    
O4    Zn4   S    
C94   H1    S    
C43   C50   A    
H55   N2    S    
C54   C66   A    
C54   C61   A    
C51   H29   S    
C14   H59   S    
C65   C72   A    
C29   C35   A    
C60   O24   A    
C30   C36   A    
C83   H8    S    
C81   C114  A    
C3    C109  A    
C55   H78   S    
C9    C60   S    
C37   C44   A    
C15   H63   S    
O17   Zn2   S    
C24   C31   A    
C15   N3    S    
C5    C10   A    
C88   H14   S    
C56   C68   A    
C53   C67   A    
C3    C83   A    
O14   Zn5   S    
C17   H70   S    
C24   N5    S    
C20   C26   A    
C2    H35   S    
C74   O19   A    
C18   H74   S    
C7    C38   S    
C48   H27   S    
O7    Zn3   S    
C76   O4    A    
C62   C68   A    
C6    C49   S    
O6    Zn6   S    
C1    O9    A    
O20   Zn7   S    
O12   Zn6   S    
C81   C88   A    
O19   Zn4   S    
C105  C111  A    
C43   H48   S    
C50   H28   S    
C80   C113  A    
C36   H41   S    
C81   H7    S    
C2    C23   A    
O12   Zn8   S    
C36   C43   A    
C86   C92   A    
C89   C96   A    
O1    Zn3   S    
C79   C86   A    
C30   C68   S    
O15   Zn6   S    
C16   H66   S    
C26   C33   A    
O10   Zn6   S    
C46   H25   S    
C25   C32   A    
C15   H62   S    
