data_mof_unit_24178.cif
_audit_creation_date              2012-10-26T18:30:19-0400
_audit_creation_method            fapswitch 2.2
_symmetry_space_group_name_H-M    P1
_symmetry_Int_Tables_number       1
_space_group_crystal_system       triclinic
_cell_length_a                    10.634493
_cell_length_b                    13.018389
_cell_length_c                    11.769996
_cell_angle_alpha                 101.195866
_cell_angle_beta                  94.381045
_cell_angle_gamma                 91.563473
_cell_volume                      1592.32564221

loop_
_atom_site_label
_atom_site_type_symbol
_atom_type_description
_atom_site_fract_x
_atom_site_fract_y
_atom_site_fract_z
_atom_type_partial_charge
C1    C     C_R   0.499880 0.298789 0.477180 0.537046
C2    C     C_R   0.626029 0.573928 0.858545 0.185300
C3    C     C_R   0.563468 0.529771 0.157409 0.033620
C4    C     C_R   0.436532 0.470229 0.842591 0.033620
C5    C     C_R   0.553407 0.525117 0.034466 -0.002132
C6    C     C_R   0.446592 0.474883 0.965533 -0.002132
C7    C     C_R   0.259264 0.499799 0.499877 0.548124
C8    C     C_R   0.740736 0.500201 0.500123 0.548125
C9    C     C_3   0.050522 0.507223 0.609532 -0.111823
C10   C     C_3   0.949478 0.492777 0.390468 -0.111823
C11   C     C_3   0.958958 0.417758 0.542678 -0.121310
C12   C     C_R   0.500119 0.701211 0.522820 0.537046
C13   C     C_3   0.041042 0.582242 0.457322 -0.121310
C14   C     C_3   0.877654 0.500119 0.499839 0.045170
C15   C     C_3   0.122346 0.499881 0.500161 0.045170
C16   C     C_3   0.966953 0.589575 0.566535 -0.128911
C17   C     C_3   0.033047 0.410425 0.433465 -0.128911
C18   C     C_R   0.497341 0.815700 0.537612 -0.017504
C19   C     C_R   0.502659 0.184300 0.462388 -0.017504
C20   C     C_R   0.533733 0.010692 0.350280 -0.135975
C21   C     C_R   0.466266 0.989308 0.649719 -0.135975
C22   C     C_R   0.528924 0.118599 0.356619 -0.026024
C23   C     C_R   0.481261 0.139902 0.559042 -0.140826
C24   C     C_R   0.471076 0.881400 0.643381 -0.026024
C25   C     C_1   0.445455 0.841346 0.745895 0.213637
C26   C     C_1   0.554546 0.158654 0.254105 0.213636
C27   C     C_3   0.717865 0.642191 0.810778 -0.316698
C28   C     C_3   0.282134 0.357809 0.189222 -0.316699
C29   C     C_3   0.230825 0.384636 0.949727 -0.427101
C30   C     C_3   0.769175 0.615365 0.050273 -0.427101
C31   C     C_R   0.518738 0.860098 0.440957 -0.140826
C32   C     C_R   0.486780 0.032471 0.552482 0.028693
C33   C     C_R   0.513219 0.967529 0.447518 0.028693
C34   C     C_R   0.352891 0.429118 0.020666 -0.016234
C35   C     C_R   0.647108 0.570882 0.979334 -0.016234
C36   C     C_R   0.373971 0.426072 0.141455 0.185299
Cu1   Cu    Cu3+1 0.509400 0.507730 0.615930 0.937603
Cu2   Cu    Cu3+1 0.490600 0.492270 0.384070 0.937603
H1    H     H_    0.922254 0.350577 0.577656 0.115493
H2    H     H_    0.445671 0.039693 0.730434 0.113133
H3    H     H_    0.359230 0.427099 0.787348 0.125052
H4    H     H_    0.640770 0.572901 0.212652 0.125052
H5    H     H_    0.734951 0.718872 0.871538 0.097592
H6    H     H_    0.808606 0.602793 0.798908 0.107627
H7    H     H_    0.685203 0.664246 0.729520 0.188712
H8    H     H_    0.265048 0.281129 0.128461 0.097592
H9    H     H_    0.314797 0.335754 0.270480 0.188712
H10   H     H_    0.191394 0.397208 0.201092 0.107628
H11   H     H_    0.154755 0.364675 0.001722 0.129823
H12   H     H_    0.077746 0.649423 0.422344 0.115493
H13   H     H_    0.190765 0.443944 0.902576 0.122170
H14   H     H_    0.250069 0.313007 0.886240 0.126708
H15   H     H_    0.845245 0.635326 0.998278 0.129823
H16   H     H_    0.749930 0.686994 0.113760 0.126708
H17   H     H_    0.809234 0.556056 0.097424 0.122170
H18   H     H_    0.094367 0.513095 0.699383 0.117524
H19   H     H_    0.905633 0.486905 0.300617 0.117524
H20   H     H_    0.936773 0.662771 0.620973 0.103330
H21   H     H_    0.063227 0.337229 0.379026 0.103330
H22   H     H_    0.539827 0.810936 0.359732 0.127073
H23   H     H_    0.460172 0.189064 0.640267 0.127072
H24   H     H_    0.554329 0.960307 0.269566 0.113133
N1    N     N_R   0.523540 0.519360 0.790140 -0.225951
N2    N     N_R   0.476460 0.480640 0.209860 -0.225951
N3    N     N_1   0.424949 0.809429 0.828106 -0.295723
N4    N     N_1   0.575053 0.190571 0.171894 -0.295722
O1    O     O_R   0.506670 0.354460 0.582000 -0.507287
O2    O     O_R   0.493330 0.645540 0.418000 -0.507288
O3    O     O_R   0.490800 0.341410 0.386200 -0.503333
O4    O     O_R   0.509200 0.658590 0.613800 -0.503333
O5    O     O_R   0.324790 0.506500 0.597880 -0.507080
O6    O     O_R   0.675210 0.493500 0.402120 -0.507080
O7    O     O_R   0.308910 0.493440 0.402080 -0.519517
O8    O     O_R   0.691090 0.506560 0.597920 -0.519517

loop_
_geom_bond_atom_site_label_1
_geom_bond_atom_site_label_2
_ccdc_geom_bond_type
C2    C35   A    
Cu1   O8    S    
C3    H4    S    
C28   H9    S    
C29   H11   S    
C3    N2    A    
C12   O2    A    
C4    N1    A    
C28   H8    S    
C30   C35   S    
C18   C24   A    
C9    C16   S    
C7    O5    A    
C5    C6    A    
C11   C14   S    
C4    H3    S    
C10   C17   S    
C5    C35   A    
C27   H6    S    
C11   C17   S    
C31   C33   A    
C2    C27   S    
C27   H7    S    
C7    C15   S    
Cu2   O3    S    
Cu1   O4    S    
Cu1   N1    S    
Cu2   N2    S    
C30   H15   S    
Cu2   O6    S    
C1    C19   S    
C8    O6    A    
C26   N4    T    
C7    O7    A    
C10   H19   S    
C25   N3    T    
C24   C25   S    
C4    C6    A    
C10   C14   S    
C29   C34   S    
C1    O3    A    
C6    C34   A    
C31   H22   S    
C19   C23   A    
Cu1   Cu2   S    
C30   H16   S    
C19   C22   A    
C8    O8    A    
C9    H18   S    
C16   H20   S    
C11   H1    S    
C9    C11   S    
C17   H21   S    
C20   C33   A    
Cu2   O2    S    
C13   C15   S    
C14   C16   S    
C13   C16   S    
C2    N1    A    
C29   H13   S    
C15   C17   S    
C12   O4    A    
C28   H10   S    
C8    C14   S    
C20   C22   A    
C3    C5    A    
C10   C13   S    
C30   H17   S    
C23   C32   A    
Cu1   O5    S    
C9    C15   S    
C21   C32   A    
C32   C33   A    
C21   H2    S    
Cu1   O1    S    
C1    O1    A    
C34   C36   A    
C20   H24   S    
C13   H12   S    
C27   H5    S    
C23   H23   S    
C28   C36   S    
C22   C26   S    
C21   C24   A    
C12   C18   S    
C18   C31   A    
C36   N2    A    
Cu2   O7    S    
C29   H14   S    
