data_mof_unit_30652.cif
_audit_creation_date              2012-12-10T18:05:13-0500
_audit_creation_method            fapswitch 2.2
_symmetry_space_group_name_H-M    P1
_symmetry_Int_Tables_number       1
_space_group_crystal_system       triclinic
_cell_length_a                    9.517523
_cell_length_b                    10.794027
_cell_length_c                    17.060397
_cell_angle_alpha                 89.404898
_cell_angle_beta                  93.115608
_cell_angle_gamma                 90.051188
_cell_volume                      1749.9704436

loop_
_atom_site_label
_atom_site_type_symbol
_atom_type_description
_atom_site_fract_x
_atom_site_fract_y
_atom_site_fract_z
_atom_type_partial_charge
C1    C     C_R   0.499764 0.262378 0.497726 0.775750
C2    C     C_R   0.500238 0.737569 0.502571 0.794256
C3    C     C_R   0.413788 0.937895 0.553506 -0.016566
C4    C     C_R   0.586353 0.061920 0.447279 -0.027842
C5    C     C_R   0.500506 0.871436 0.504191 -0.121408
C6    C     C_R   0.499581 0.128444 0.496486 -0.146311
C7    C     C_R   0.079521 0.421799 0.549031 0.536364
C8    C     C_R   0.920434 0.578035 0.450852 0.578478
C9    C     C_R   0.929755 0.422495 0.548765 -0.202055
C10   C     C_R   0.070231 0.577937 0.451524 -0.147741
C11   C     C_R   0.516531 0.498358 0.650662 0.951571
C12   C     C_R   0.483644 0.499284 0.348491 0.840058
C13   C     C_R   0.524010 0.487734 0.736287 -0.201265
C14   C     C_R   0.480724 0.498935 0.261164 -0.224381
C15   C     C_R   0.460061 0.383897 0.769900 0.364149
C16   C     C_R   0.603569 0.460599 0.224898 0.390061
C17   C     C_R   0.462569 0.370094 0.852338 -0.162145
C18   C     C_R   0.617301 0.482016 0.144020 -0.158590
C19   C     C_R   0.539087 0.455286 0.899783 0.136676
C20   C     C_R   0.500676 0.526984 0.097413 0.149332
C21   C     C_R   0.615304 0.553078 0.865083 0.358446
C22   C     C_R   0.374536 0.558762 0.132465 0.364934
C23   C     C_R   0.601804 0.573176 0.783592 -0.152908
C24   C     C_R   0.364121 0.543805 0.213832 -0.160308
C25   C     C_R   0.413692 0.066744 0.548213 -0.110995
C26   C     C_R   0.586576 0.933157 0.452603 -0.123516
Cu1   Cu    Cu3+1 0.640660 0.500020 0.500000 1.049545
Cu2   Cu    Cu3+1 0.359340 0.499980 0.500000 1.037644
H1    H     H_    0.349817 0.120087 0.586375 0.222881
H2    H     H_    0.650406 0.879879 0.414370 0.202717
H3    H     H_    0.875701 0.360846 0.587476 0.155284
H4    H     H_    0.124286 0.640247 0.413242 0.144754
N1    N     N_2   0.532544 0.443146 0.982323 -0.280087
N2    N     N_2   0.508938 0.542775 0.015371 -0.203053
N3    N     N_R   0.852070 0.500030 0.499980 -0.188143
N4    N     N_R   0.147930 0.499970 0.500020 -0.191907
O1    O     O_R   0.618740 0.319660 0.500000 -0.603219
O2    O     O_R   0.381260 0.680340 0.500000 -0.627798
O3    O     O_R   0.381170 0.319630 0.500010 -0.517823
O4    O     O_R   0.618830 0.680370 0.499990 -0.514192
O5    O     O_R   0.631780 0.498870 0.613920 -0.582980
O6    O     O_R   0.368220 0.501130 0.386080 -0.572185
O7    O     O_R   0.394210 0.498840 0.613930 -0.518579
O8    O     O_R   0.605790 0.501160 0.386070 -0.485078
O9    O     O_3   0.708700 0.400808 0.269929 -0.669876
H5    H     H_    0.758175 0.342340 0.236560 0.354021
O10   O     O_3   0.399222 0.296227 0.720198 -0.672589
H6    H     H_    0.410722 0.213511 0.745350 0.354938
C27   C     C_2   0.756751 0.466276 0.109781 0.418553
H7    H     H_    0.765465 0.430193 0.051356 0.088443
O11   O     O_2   0.864828 0.495740 0.146852 -0.465685
C28   C     C_2   0.379229 0.271821 0.890501 0.431377
H8    H     H_    0.411160 0.238112 0.948919 0.099134
O12   O     O_2   0.271032 0.231057 0.858734 -0.493984
O13   O     O_3   0.700690 0.632339 0.909422 -0.716107
H9    H     H_    0.736414 0.588158 0.957455 0.349286
O14   O     O_3   0.257704 0.603193 0.088923 -0.695697
H10   H     H_    0.276884 0.608751 0.032614 0.363230
C29   C     C_2   0.670891 0.684466 0.750169 0.448013
H11   H     H_    0.757640 0.729047 0.782752 0.147672
O15   O     O_2   0.629274 0.730637 0.687566 -0.589602
C30   C     C_2   0.228091 0.575532 0.246546 0.542136
H12   H     H_    0.185515 0.668290 0.238458 0.077623
O16   O     O_2   0.158219 0.495890 0.277621 -0.490744
C31   C     C_2   0.328968 0.875604 0.613205 0.423860
H13   H     H_    0.344046 0.778322 0.627557 0.106234
O17   O     O_2   0.241703 0.933015 0.648161 -0.521549
C32   C     C_2   0.670734 0.124156 0.387449 0.389347
H14   H     H_    0.653820 0.220874 0.372434 0.118566
O18   O     O_2   0.759504 0.067379 0.353244 -0.521986
O19   O     O_3   0.158088 0.343173 0.598104 -0.647631
H15   H     H_    0.093725 0.293001 0.629435 0.324851
O20   O     O_3   0.841797 0.655962 0.401308 -0.676240
H16   H     H_    0.906181 0.705577 0.369655 0.312579

loop_
_geom_bond_atom_site_label_1
_geom_bond_atom_site_label_2
_ccdc_geom_bond_type
C16   O9    S    
C4    C26   A    
O13   H9    S    
C2    O4    A    
C11   O5    A    
C30   H12   S    
C1    O1    A    
C7    N4    A    
Cu1   O5    S    
Cu2   O7    S    
C18   C20   A    
O10   H6    S    
Cu2   O3    S    
C15   O10   S    
Cu1   O4    S    
C3    C5    A    
C20   N2    S    
C22   O14   S    
C13   C15   A    
N1    N2    D    
C20   C22   A    
O19   H15   S    
C12   O8    A    
O9    H5    S    
Cu2   O2    S    
C23   C29   S    
C11   C13   S    
Cu2   N4    S    
O14   H10   S    
C3    C31   S    
C14   C24   A    
Cu1   O1    S    
C30   O16   D    
C17   C28   S    
C16   C18   A    
C8    O20   S    
C19   C21   A    
C28   O12   D    
C26   H2    S    
C9    H3    S    
C7    C9    A    
C21   C23   A    
C7    O19   S    
C27   H7    S    
C14   C16   A    
C11   O7    A    
C29   O15   D    
C6    C25   A    
C31   O17   D    
C1    O3    A    
C12   O6    A    
C5    C26   A    
C2    C5    S    
C10   H4    S    
C29   H11   S    
C3    C25   A    
C28   H8    S    
C13   C23   A    
C25   H1    S    
C21   O13   S    
C31   H13   S    
O20   H16   S    
C22   C24   A    
Cu2   O6    S    
Cu1   Cu2   S    
C15   C17   A    
C32   O18   D    
C2    O2    A    
C17   C19   A    
C9    N3    A    
C24   C30   S    
C10   N4    A    
Cu1   N3    S    
C19   N1    S    
C4    C6    A    
Cu1   O8    S    
C8    C10   A    
C4    C32   S    
C1    C6    S    
C18   C27   S    
C12   C14   S    
C32   H14   S    
C27   O11   D    
C8    N3    A    
