data_mof_unit_34921.cif
_audit_creation_date              2012-12-10T17:03:45-0500
_audit_creation_method            fapswitch 2.2
_symmetry_space_group_name_H-M    P1
_symmetry_Int_Tables_number       1
_space_group_crystal_system       triclinic
_cell_length_a                    10.113618
_cell_length_b                    10.660708
_cell_length_c                    13.137454
_cell_angle_alpha                 89.694164
_cell_angle_beta                  71.085364
_cell_angle_gamma                 87.100648
_cell_volume                      1338.16630245

loop_
_atom_site_label
_atom_site_type_symbol
_atom_type_description
_atom_site_fract_x
_atom_site_fract_y
_atom_site_fract_z
_atom_type_partial_charge
C1    C     C_R   0.502223 0.736249 0.486949 0.897065
C2    C     C_R   0.375610 0.477349 0.821576 -0.174752
C3    C     C_2   0.626931 0.060717 0.450379 0.357355
C4    C     C_R   0.422885 0.493742 0.703930 0.926388
C5    C     C_2   0.510180 0.125282 0.514737 0.209599
C6    C     C_2   0.627883 0.923618 0.432640 0.441495
C7    C     C_2   0.506546 0.866540 0.455467 -0.133737
C8    C     C_2   0.108249 0.488806 0.414779 0.004661
C9    C     C_2   0.961624 0.457525 0.420042 0.201365
C10   C     C_R   0.502031 0.261544 0.504371 0.891431
C11   C     C_R   0.577740 0.497999 0.296323 0.910573
C12   C     C_R   0.443800 0.457113 0.980820 -0.140413
C13   C     C_R   0.779576 0.363479 0.024034 -0.174265
C14   C     C_R   0.626781 0.477323 0.180310 -0.177506
C15   C     C_R   0.239024 0.521692 0.887132 -0.031491
C16   C     C_R   0.200795 0.511289 0.999639 0.053295
C17   C     C_R   0.302066 0.471754 0.045525 0.616878
C18   C     C_3   0.287814 0.131352 0.650227 -0.311826
C19   C     C_3   0.850875 0.834440 0.405853 -0.123377
C20   C     C_3   0.795124 0.613457 0.652652 -0.165068
C21   C     C_3   0.491725 0.725386 0.138407 -0.344634
C22   C     C_3   0.272084 0.308309 0.161631 -0.384901
C23   C     C_R   0.473173 0.430486 0.871706 -0.164244
C24   C     C_3   0.561105 0.161215 0.765203 -0.353474
C25   C     C_3   0.833110 0.122181 0.466681 -0.329905
C26   C     C_R   0.553500 0.453079 0.024696 -0.056521
C27   C     C_R   0.681416 0.386802 0.969961 0.012415
C28   C     C_R   0.703760 0.338176 0.866066 -0.027046
C29   C     C_R   0.595994 0.354293 0.819300 0.518246
C30   C     C_R   0.538667 0.514874 0.122177 0.553761
C31   C     C_R   0.747914 0.402042 0.130843 -0.299180
H1    H     H_    0.814986 0.369076 0.175856 0.190558
H2    H     H_    0.372905 0.879834 0.369576 0.183337
H3    H     H_    0.298458 0.915317 0.500974 0.231289
H4    H     H_    0.011427 0.364707 0.577310 0.144659
H5    H     H_    0.026644 0.493080 0.652230 0.189823
H6    H     H_    0.010587 0.302955 0.326429 0.151094
H7    H     H_    0.845469 0.352194 0.356370 0.254370
H8    H     H_    0.775115 0.520728 0.691954 0.158922
H9    H     H_    0.698223 0.670810 0.659551 0.187068
H10   H     H_    0.850634 0.666354 0.697499 0.114926
H11   H     H_    0.836921 0.242092 0.733071 0.211926
H12   H     H_    0.182752 0.507162 0.337225 0.215236
H13   H     H_    0.913633 0.333528 0.796945 0.161119
H14   H     H_    0.569864 0.740522 0.179825 0.169680
H15   H     H_    0.406653 0.799412 0.167415 0.194716
H16   H     H_    0.539755 0.736624 0.049893 0.156634
H17   H     H_    0.109287 0.506604 0.798656 0.201505
H18   H     H_    0.180606 0.650670 0.792710 0.209356
H19   H     H_    0.252540 0.284381 0.247286 0.192563
H20   H     H_    0.378717 0.267967 0.117119 0.168092
H21   H     H_    0.193124 0.263109 0.133578 0.163975
H22   H     H_    0.993382 0.568472 0.026988 0.214888
H23   H     H_    0.875679 0.307630 0.987446 0.171254
H24   H     H_    0.023332 0.462199 0.111798 0.205471
H25   H     H_    0.588201 0.097575 0.694515 0.213393
H26   H     H_    0.446218 0.162502 0.806685 0.178067
H27   H     H_    0.616534 0.119711 0.819089 0.164231
H28   H     H_    0.810112 0.049606 0.530513 0.122603
H29   H     H_    0.822936 0.214416 0.507460 0.204176
H30   H     H_    0.944494 0.107522 0.416675 0.163239
H31   H     H_    0.227183 0.154424 0.594963 0.192628
H32   H     H_    0.308515 0.216938 0.689411 0.178814
H33   H     H_    0.221669 0.072882 0.715140 0.180002
H34   H     H_    0.814189 0.836896 0.495512 0.138293
H35   H     H_    0.937548 0.897960 0.373067 0.154024
H36   H     H_    0.895581 0.738452 0.379310 0.218599
N1    N     N_2   0.148270 0.498670 0.498870 -0.051398
N2    N     N_2   0.852610 0.498640 0.498840 0.062363
N3    N     N_3   0.387591 0.927044 0.434322 -0.464235
N4    N     N_3   0.078125 0.430262 0.590016 -0.360073
N5    N     N_3   0.946140 0.384198 0.333941 -0.461241
N6    N     N_3   0.833993 0.270618 0.809719 -0.473791
N7    N     N_3   0.137899 0.575839 0.842179 -0.466772
N8    N     N_3   0.061197 0.543149 0.069771 -0.404412
O1    O     O_R   0.386950 0.680940 0.500020 -0.615631
O2    O     O_3   0.744938 0.862224 0.359886 -0.605297
O3    O     O_3   0.881216 0.602999 0.544894 -0.574564
O4    O     O_3   0.433501 0.607258 0.163355 -0.572988
O5    O     O_3   0.259973 0.440366 0.153102 -0.585230
O6    O     O_3   0.603174 0.282847 0.729976 -0.612076
O7    O     O_3   0.748804 0.121076 0.398495 -0.604464
O8    O     O_R   0.613110 0.680900 0.499980 -0.593834
O9    O     O_R   0.330780 0.500000 0.653640 -0.625255
O10   O     O_R   0.556930 0.499960 0.653610 -0.599201
O11   O     O_R   0.386890 0.319100 0.500020 -0.628815
O12   O     O_R   0.613050 0.319060 0.499980 -0.592717
O13   O     O_R   0.443070 0.500040 0.346390 -0.574349
O14   O     O_R   0.669220 0.500000 0.346360 -0.625363
O15   O     O_3   0.412369 0.060529 0.596127 -0.669450
Zn1   Zn    Zn3+2 0.349000 0.500030 0.500020 0.961632
Zn2   Zn    Zn3+2 0.651000 0.499970 0.499980 0.984438

loop_
_geom_bond_atom_site_label_1
_geom_bond_atom_site_label_2
_ccdc_geom_bond_type
C8    C9    S    
C16   N8    S    
C9    N5    S    
C14   C31   A    
C3    C6    S    
C7    N3    S    
C20   H10   S    
O8    Zn2   S    
C12   C23   A    
C26   C27   A    
C23   C29   A    
C28   C29   A    
C9    N2    D    
C13   H23   S    
O11   Zn1   S    
C20   H9    S    
C11   C14   S    
C18   H32   S    
C15   C16   A    
N1    Zn1   S    
C19   H35   S    
C19   O2    S    
C24   H26   S    
C12   C17   A    
C8    H12   S    
C19   H36   S    
C25   H29   S    
N2    Zn2   S    
H3    N3    S    
C5    O15   S    
H5    N4    S    
C22   H19   S    
H24   N8    S    
H4    N4    S    
O12   Zn2   S    
N2    O3    S    
H22   N8    S    
C14   C30   A    
C28   N6    S    
O10   Zn2   S    
C21   H14   S    
H7    N5    S    
C10   O12   A    
C18   O15   S    
H17   N7    S    
C20   H8    S    
C18   H31   S    
C6    O2    S    
C4    O10   A    
C17   O5    S    
C12   C26   A    
C2    C4    S    
C24   O6    S    
C29   O6    S    
C11   O14   A    
C31   H1    S    
C4    O9    A    
O13   Zn1   S    
C11   O13   A    
C21   O4    S    
C3    O7    S    
C25   H30   S    
O14   Zn2   S    
C2    C15   A    
H2    N3    S    
C30   O4    S    
O9    Zn1   S    
C8    N1    D    
C25   O7    S    
C1    O8    A    
C27   C28   A    
C22   H21   S    
C21   H15   S    
C10   O11   A    
H11   N6    S    
C1    C7    S    
C1    O1    A    
C13   C31   A    
C3    C5    D    
C26   C30   A    
C6    C7    D    
C24   H25   S    
C20   O3    S    
C22   O5    S    
C5    C10   S    
C18   H33   S    
C16   C17   A    
N1    N4    S    
C19   H34   S    
H13   N6    S    
O1    Zn1   S    
C15   N7    S    
C24   H27   S    
H6    N5    S    
C2    C23   A    
H18   N7    S    
C13   C27   A    
C25   H28   S    
C22   H20   S    
C21   H16   S    
