data_mof_unit_36542.cif
_audit_creation_date              2013-03-05T15:49:19-0500
_audit_creation_method            fapswitch 2.2
_symmetry_space_group_name_H-M    P1
_symmetry_Int_Tables_number       1
_space_group_crystal_system       triclinic
_cell_length_a                    10.627723
_cell_length_b                    11.996891
_cell_length_c                    12.842347
_cell_angle_alpha                 93.709948
_cell_angle_beta                  90.147293
_cell_angle_gamma                 86.629185
_cell_volume                      1631.13506298

loop_
_atom_site_label
_atom_site_type_symbol
_atom_site_description
_atom_site_fract_x
_atom_site_fract_y
_atom_site_fract_z
_atom_type_partial_charge
O1    O     O_R   0.506170 0.421690 0.658830 -0.644452
O2    O     O_R   0.491330 0.609320 0.646410 -0.623023
C1    C     C_R   0.498624 0.522351 0.700337 0.839202
O3    O     O_R   0.690660 0.406170 0.506210 -0.590541
O4    O     O_R   0.675810 0.593790 0.493790 -0.625585
C2    C     C_R   0.739423 0.500913 0.502994 0.897381
Zn1   Zn    Zn3+2 0.509910 0.374720 0.508290 0.983774
Zn2   Zn    Zn3+2 0.490090 0.625280 0.491710 0.948635
O5    O     O_R   0.508670 0.390680 0.353590 -0.576897
O6    O     O_R   0.493830 0.578310 0.341170 -0.629798
O7    O     O_R   0.324190 0.406210 0.506210 -0.626685
O8    O     O_R   0.309340 0.593830 0.493790 -0.621737
C3    C     C_R   0.505440 0.477557 0.299598 0.934347
C4    C     C_R   0.260487 0.499913 0.502676 0.862243
H1    H     H_    0.880372 0.576269 0.361124 0.162516
C5    C     C_R   0.873990 0.427272 0.685441 -0.190404
H2    H     H_    0.772364 0.429326 0.689935 0.131019
C6    C     C_R   0.942225 0.390204 0.770751 -0.132245
H3    H     H_    0.893194 0.363330 0.837701 0.140231
C7    C     C_R   0.073253 0.389120 0.770422 -0.121873
H4    H     H_    0.126071 0.361397 0.837140 0.146170
C8    C     C_R   0.136463 0.424977 0.684735 -0.179342
H5    H     H_    0.238051 0.425149 0.688752 0.151055
C9    C     C_R   0.068655 0.461595 0.597017 0.094206
C10   C     C_R   0.936690 0.462903 0.597452 0.093682
C11   C     C_R   0.871475 0.503023 0.510324 -0.093937
C12   C     C_R   0.932510 0.544948 0.426960 -0.162142
H6    H     H_    0.108845 0.574392 0.360452 0.147742
C13   C     C_R   0.061128 0.543569 0.426465 -0.208079
C14   C     C_R   0.128209 0.500337 0.509363 -0.092443
C15   C     C_R   0.516096 0.463541 0.188073 -0.184364
C16   C     C_R   0.496074 0.536037 0.811611 -0.041950
C17   C     C_R   0.416025 0.631771 0.969868 -0.191401
C18   C     C_R   0.429384 0.627671 0.862445 -0.202722
C19   C     C_R   0.553314 0.450772 0.866943 -0.254722
C20   C     C_R   0.540492 0.454075 0.973648 0.121447
C21   C     C_R   0.470443 0.544686 0.025363 0.191217
C22   C     C_R   0.456682 0.547338 0.131862 -0.317283
C23   C     C_R   0.588127 0.373268 0.137232 0.309799
C24   C     C_R   0.597096 0.368247 0.029050 -0.284354
H7    H     H_    0.401030 0.616142 0.171444 0.166031
H8    H     H_    0.362606 0.701849 0.009238 0.143062
H9    H     H_    0.652473 0.299950 0.988669 0.173453
H10   H     H_    0.384350 0.693426 0.818997 0.162813
H11   H     H_    0.606327 0.380835 0.826642 0.143229
N1    N     N_R   0.523130 0.207800 0.519340 -0.101400
N2    N     N_R   0.476870 0.792180 0.480660 -0.103492
C25   C     C_R   0.384437 0.953379 0.400904 -0.303795
C26   C     C_R   0.395340 0.837349 0.410623 0.037656
C27   C     C_R   0.549703 0.858942 0.542975 -0.037273
C28   C     C_R   0.542008 0.976165 0.536020 0.086075
C29   C     C_R   0.458139 0.023831 0.463909 0.086751
C30   C     C_R   0.450398 0.141039 0.456964 0.000389
C31   C     C_R   0.604740 0.162672 0.589341 0.049989
C32   C     C_R   0.615721 0.046635 0.599021 -0.314170
H12   H     H_    0.386474 0.179248 0.402019 0.130798
H13   H     H_    0.661579 0.216956 0.637973 0.125873
H14   H     H_    0.319084 0.987562 0.344719 0.154188
H15   H     H_    0.681115 0.012467 0.655183 0.151061
H16   H     H_    0.338502 0.783098 0.361978 0.128145
H17   H     H_    0.613664 0.820729 0.597893 0.129912
N3    N     N_R   0.658561 0.290947 0.193641 0.214037
O9    O     O_R   0.664198 0.186472 0.158773 -0.393455
O10   O     O_R   0.735404 0.322452 0.267436 -0.388563

loop_
_geom_bond_atom_site_label_1
_geom_bond_atom_site_label_2
_geom_bond_distance
_ccdc_geom_bond_type
O4    Zn2   1.988112 S    
C16   C19   1.392853 A    
C25   H14   1.083251 S    
C21   C22   1.373994 A    
C5    C10   1.415454 A    
C32   H15   1.083246 S    
C12   C13   1.366073 A    
C13   C14   1.390941 A    
C28   C32   1.403279 A    
C19   C20   1.375235 A    
C15   C22   1.395475 A    
C25   C29   1.403098 A    
Zn2   O8    1.979888 S    
N1    C31   1.362825 A    
N3    O9    1.301438 A    
C17   C18   1.384625 A    
O8    C4    1.279770 A    
Zn2   N2    2.013106 S    
O6    C3    1.288621 A    
N2    C26   1.362816 A    
C5    C6    1.394630 A    
O1    Zn1   1.978253 S    
C29   C30   1.412269 A    
C9    C10   1.401672 A    
Zn1   O7    1.988113 S    
C11   C12   1.389798 A    
C2    C11   1.407928 S    
C26   H16   1.081867 S    
C20   C21   1.411015 A    
C4    C14   1.408350 S    
O3    Zn1   1.979890 S    
O4    C2    1.280861 A    
C17   H8    1.084008 S    
N1    C30   1.366473 A    
O3    C2    1.279701 A    
C25   C26   1.403606 A    
C15   C23   1.413784 A    
O2    C1    1.287617 A    
N2    C27   1.366698 A    
C6    C7    1.391843 A    
C1    C16   1.427965 S    
O7    C4    1.281032 A    
C8    C9    1.415623 A    
C9    C14   1.410580 A    
C28   C29   1.408351 A    
C19   H11   1.085803 S    
Zn1   N1    2.013343 S    
C20   C24   1.395740 A    
C18   H10   1.083463 S    
C7    H4    1.082727 S    
C22   H7    1.085997 S    
Zn2   O6    1.978254 S    
C6    H3    1.082893 S    
C30   H12   1.082745 S    
O2    Zn2   2.008146 S    
C23   C24   1.389984 A    
Zn1   O5    2.008145 S    
C23   N3    1.436433 S    
O5    C3    1.287419 A    
C31   C32   1.403630 A    
H6    C13   1.085102 S    
N3    O10   1.301496 A    
C27   C28   1.412467 A    
C10   C11   1.410849 A    
C8    H5    1.080858 S    
H1    C12   1.085029 S    
C27   H17   1.082765 S    
C3    C15   1.435223 S    
C24   H9    1.084673 S    
C17   C21   1.398956 A    
C7    C8    1.395099 A    
C5    H2    1.080497 S    
O1    C1    1.286253 A    
C31   H13   1.082011 S    
C16   C18   1.398179 A    
