data_mof_unit_52423.cif
_audit_creation_date              2012-12-11T15:15:11-0500
_audit_creation_method            fapswitch 2.2
_symmetry_space_group_name_H-M    P1
_symmetry_Int_Tables_number       1
_space_group_crystal_system       triclinic
_cell_length_a                    18.859374
_cell_length_b                    18.801537
_cell_length_c                    20.355383
_cell_angle_alpha                 106.982497
_cell_angle_beta                  106.459074
_cell_angle_gamma                 111.105467
_cell_volume                      5797.3769063

loop_
_atom_site_label
_atom_site_type_symbol
_atom_type_description
_atom_site_fract_x
_atom_site_fract_y
_atom_site_fract_z
_atom_type_partial_charge
C1    C     C_R   0.037261 0.089512 0.346768 -0.128640
C2    C     C_R   0.238790 0.074131 0.495351 -0.144365
C3    C     C_R   0.160600 0.183846 0.718529 -0.122690
C4    C     C_R   0.754833 0.929920 0.455243 -0.075732
C5    C     C_R   0.052282 0.805404 0.480204 -0.128939
C6    C     C_R   0.242856 0.208117 0.726727 0.036230
C7    C     C_R   0.038494 0.782272 0.536057 0.043253
C8    C     C_R   0.242918 0.005176 0.451372 0.085844
C9    C     C_R   0.932854 0.978217 0.711828 -0.070783
C10   C     C_R   0.138778 0.724765 0.554467 -0.254292
C11   C     C_R   0.079909 0.743168 0.574506 0.126759
C12   C     C_R   0.746659 0.002462 0.464970 0.051965
C13   C     C_R   0.052567 0.713904 0.623261 -0.253533
C14   C     C_R   0.069376 0.652855 0.638632 0.156796
C15   C     C_R   0.116628 0.623166 0.606840 0.009786
C16   C     C_R   0.848196 0.777113 0.291032 -0.142635
C17   C     C_R   0.156335 0.662709 0.568252 0.058168
C18   C     C_R   0.031342 0.614223 0.677761 -0.202096
C19   C     C_R   0.031664 0.540413 0.677924 -0.211399
C20   C     C_R   0.070041 0.504957 0.638979 0.152406
C21   C     C_R   0.116600 0.548766 0.606970 0.027106
C22   C     C_R   0.155682 0.513573 0.568359 0.105763
C23   C     C_R   0.772726 0.725439 0.289089 0.033168
C24   C     C_R   0.203540 0.558055 0.538232 -0.246102
C25   C     C_R   0.205527 0.633646 0.538143 0.134686
C26   C     C_R   0.055820 0.422962 0.625338 -0.262161
C27   C     C_R   0.085663 0.383381 0.578491 0.112759
C28   C     C_R   0.001855 0.237071 0.569322 -0.145030
C29   C     C_R   0.140522 0.431133 0.554840 -0.242276
C30   C     C_R   0.376839 0.085124 0.445076 -0.262816
C31   C     C_R   0.306459 0.007416 0.422495 0.114017
C32   C     C_R   0.300677 0.931055 0.377439 -0.261573
C33   C     C_R   0.368994 0.931105 0.364061 0.144215
C34   C     C_R   0.053849 0.291138 0.549193 0.083081
C35   C     C_R   0.443280 0.008777 0.394555 0.027438
C36   C     C_R   0.445815 0.086298 0.432065 0.141810
C37   C     C_R   0.366963 0.854232 0.327102 -0.209367
C38   C     C_R   0.440704 0.853872 0.327205 -0.199092
C39   C     C_R   0.516811 0.930375 0.364399 0.140754
C40   C     C_R   0.770707 0.770518 0.355191 -0.132314
C41   C     C_R   0.517409 0.008415 0.394653 0.026085
C42   C     C_R   0.593793 0.085583 0.432325 0.138315
C43   C     C_R   0.593863 0.162890 0.462312 -0.202929
C44   C     C_R   0.520056 0.163239 0.462258 -0.205667
C45   C     C_R   0.239155 0.190208 0.654007 -0.127699
C46   C     C_R   0.593173 0.929619 0.379495 -0.253370
C47   C     C_R   0.669574 0.005474 0.427212 0.117593
C48   C     C_R   0.669617 0.083604 0.446937 -0.253039
C49   C     C_R   0.317783 0.240069 0.797974 0.143890
C50   C     C_R   0.314461 0.267236 0.868451 -0.188347
C51   C     C_R   0.385537 0.300535 0.936095 -0.151967
C52   C     C_R   0.079344 0.243686 0.505098 -0.142058
C53   C     C_R   0.461856 0.307280 0.934902 0.227268
C54   C     C_R   0.464697 0.277899 0.864526 -0.188507
C55   C     C_R   0.393228 0.244126 0.796574 -0.170146
C56   C     C_R   0.975614 0.799853 0.546005 -0.099741
C57   C     C_R   0.692357 0.500216 0.147544 -0.160866
C58   C     C_R   0.746067 0.586057 0.197079 -0.184632
C59   C     C_R   0.636584 0.592405 0.234481 -0.169547
C60   C     C_R   0.583043 0.506501 0.185139 -0.178287
C61   C     C_R   0.609340 0.460744 0.139151 0.228194
C62   C     C_2   0.541936 0.358660 0.005211 -0.220832
C63   C     C_2   0.544628 0.377581 0.075125 -0.229949
C64   C     C_R   0.824389 0.071337 0.519809 -0.132521
C65   C     C_R   0.717781 0.633629 0.239307 0.145452
C66   C     C_R   0.938471 0.030415 0.206780 0.143434
C67   C     C_R   0.169094 0.933825 0.430847 -0.148420
C68   C     C_R   0.858125 0.964816 0.150821 -0.187405
C69   C     C_R   0.819716 0.969589 0.084015 -0.160633
C70   C     C_R   0.862081 0.039381 0.071622 0.226983
C71   C     C_R   0.939086 0.107915 0.130283 -0.181103
C72   C     C_R   0.977121 0.103483 0.197366 -0.173774
C73   C     C_R   0.835440 0.029348 0.845424 -0.168871
C74   C     C_R   0.870754 0.034076 0.794137 -0.182564
C75   C     C_R   0.875991 0.904353 0.783008 -0.103104
C76   C     C_R   0.966864 0.948093 0.281998 -0.129358
C77   C     C_R   0.840317 0.899330 0.833770 -0.194228
C78   C     C_R   0.982097 0.051945 0.709636 -0.219703
C79   C     C_R   0.822407 0.963147 0.867338 0.223733
C80   C     C_2   0.836198 0.037195 0.995159 -0.227277
C81   C     C_2   0.802111 0.964192 0.932289 -0.213341
C82   C     C_R   0.892789 0.972429 0.763778 0.186268
C83   C     C_R   0.981631 0.022892 0.274858 0.036295
C84   C     C_3   0.254507 0.680735 0.502371 -0.423622
C85   C     C_3   0.314244 0.651164 0.480625 -0.261733
C86   C     C_3   0.365040 0.708228 0.452317 -0.894116
C87   C     C_R   0.910953 0.911876 0.644409 0.412568
Cl1   Cl    Cl    0.819896 0.812070 0.600344 -0.719783
H1    H     H_    0.059323 0.156293 0.362619 0.098198
H2    H     H_    0.996288 0.637545 0.703502 0.134718
H3    H     H_    0.707601 0.864961 0.416817 0.093784
H4    H     H_    0.997101 0.508096 0.703987 0.129685
H5    H     H_    0.015908 0.388508 0.646519 0.115768
H6    H     H_    0.166685 0.402779 0.521030 0.114726
H7    H     H_    0.235172 0.530460 0.511266 0.125953
H8    H     H_    0.381343 0.144709 0.477771 0.117594
H9    H     H_    0.246147 0.870579 0.357558 0.115940
H10   H     H_    0.309808 0.794196 0.302525 0.126762
H11   H     H_    0.439323 0.793573 0.302900 0.130666
H12   H     H_    0.950598 0.791477 0.586139 0.142344
H13   H     H_    0.592093 0.869050 0.360259 0.117904
H14   H     H_    0.876859 0.757977 0.255092 0.088630
H15   H     H_    0.728142 0.142925 0.480067 0.119354
H16   H     H_    0.652007 0.222673 0.490399 0.132285
H17   H     H_    0.522399 0.223299 0.490106 0.131543
H18   H     H_    0.258043 0.266104 0.872157 0.111653
H19   H     H_    0.809200 0.614826 0.201322 0.112018
H20   H     H_    0.613104 0.627117 0.266570 0.113366
H21   H     H_    0.489351 0.342160 0.081645 0.132049
H22   H     H_    0.523141 0.283713 0.862259 0.116397
H23   H     H_    0.144200 0.870631 0.387287 0.087061
H24   H     H_    0.714873 0.465583 0.114089 0.114033
H25   H     H_    0.397913 0.222660 0.743348 0.114114
H26   H     H_    0.980933 0.254736 0.612684 0.087080
H27   H     H_    0.597516 0.393603 0.998781 0.132798
H28   H     H_    0.381198 0.325616 0.988963 0.110311
H29   H     H_    0.519078 0.477180 0.179264 0.112176
H30   H     H_    0.825394 0.909258 0.158096 0.119751
H31   H     H_    0.881137 0.086068 0.778599 0.118511
H32   H     H_    0.893054 0.856463 0.760721 0.144417
H33   H     H_    0.778613 0.904261 0.935859 0.131417
H34   H     H_    0.998189 0.115568 0.746342 0.117566
H35   H     H_    0.972711 0.162562 0.122178 0.112167
H36   H     H_    0.820321 0.078381 0.869128 0.117110
H37   H     H_    0.038606 0.155453 0.240105 0.112293
H38   H     H_    0.729118 0.744159 0.378953 0.122148
H39   H     H_    0.865498 0.097220 0.992781 0.130458
H40   H     H_    0.758599 0.917204 0.041110 0.116184
H41   H     H_    0.831279 0.848028 0.850224 0.118251
H42   H     H_    0.129865 0.267735 0.489229 0.086183
H43   H     H_    0.841709 0.137685 0.541418 0.098480
H44   H     H_    0.925019 0.884129 0.237487 0.097919
H45   H     H_    0.278853 0.140222 0.511647 0.087389
H46   H     H_    0.290798 0.199894 0.638394 0.094233
H47   H     H_    0.322057 0.707352 0.401442 0.253867
H48   H     H_    0.404823 0.774549 0.497866 0.266239
H49   H     H_    0.406908 0.684993 0.436225 0.251295
H50   H     H_    0.358939 0.652934 0.531097 0.206840
H51   H     H_    0.277045 0.585268 0.434150 0.193754
H52   H     H_    0.208531 0.674893 0.450100 0.181984
H53   H     H_    0.293210 0.749022 0.543930 0.195881
H54   H     H_    0.139155 0.186408 0.762540 0.096279
H55   H     H_    0.096738 0.801281 0.457809 0.096182
H56   H     H_    0.164577 0.753036 0.521951 0.116735
H57   H     H_    0.011173 0.731522 0.643126 0.124504
N1    N     N_R   0.052580 0.056040 0.395500 -0.039374
N2    N     N_R   0.890210 0.849400 0.355780 -0.041757
N3    N     N_R   0.997110 0.161140 0.539580 -0.039451
N4    N     N_R   0.841950 0.845400 0.395490 -0.038176
N5    N     N_R   0.045360 0.165140 0.499870 -0.039357
N6    N     N_R   0.877490 0.041510 0.539580 -0.043875
N7    N     N_R   0.009820 0.969030 0.355780 -0.039646
N8    N     N_R   0.158050 0.154600 0.604510 -0.039607
N9    N     N_R   0.954640 0.834860 0.500130 -0.032965
N10   N     N_R   0.122510 0.958490 0.460420 -0.039973
N11   N     N_R   0.990180 0.030970 0.644220 -0.057088
N12   N     N_R   0.947420 0.943960 0.604500 -0.076910
N13   N     N_R   0.165270 0.045500 0.500140 -0.039254
N14   N     N_R   0.109790 0.150600 0.644220 -0.037926
N15   N     N_R   0.002890 0.838860 0.460420 -0.044829
N16   N     N_R   0.834730 0.954500 0.499860 -0.032797
Ni1   Ni    Ni4+2 0.104370 0.104380 0.500010 0.207593
Ni2   Ni    Ni4+2 0.895630 0.895620 0.499990 0.277772
Ni3   Ni    Ni4+2 0.006300 0.904810 0.408930 0.207080
Ni4   Ni    Ni4+2 0.993700 0.095190 0.591070 0.206488

loop_
_geom_bond_atom_site_label_1
_geom_bond_atom_site_label_2
_ccdc_geom_bond_type
C66   C68   A    
C87   Cl1   S    
C63   H21   S    
C6    C45   A    
C27   C29   A    
C76   H44   S    
C41   C42   A    
C14   C18   A    
C35   C36   A    
C13   H57   S    
C3    C6    A    
C39   C41   A    
C53   C54   A    
C7    C11   S    
C74   H31   S    
N1    Ni1   S    
C45   H46   S    
C62   C63   D    
C16   N2    A    
N15   Ni3   S    
C71   H35   S    
N11   N12   A    
C22   C29   A    
N3    N5    A    
C18   C19   A    
N2    Ni3   S    
C29   H6    S    
C12   C64   A    
C84   H53   S    
C5    H55   S    
C57   H24   S    
C76   N7    A    
C10   C17   A    
C23   C40   A    
C32   H9    S    
C54   H22   S    
C67   N10   A    
C58   H19   S    
C73   C74   A    
C61   C63   S    
C43   H16   S    
C30   H8    S    
C19   H4    S    
C86   H49   S    
C68   H30   S    
C66   C83   S    
C46   C47   A    
C66   C72   A    
C19   C20   A    
C69   H40   S    
C68   C69   A    
N6    N16   A    
C25   C84   S    
C70   C71   A    
N4    Ni2   S    
C4    C12   A    
C85   H51   S    
C9    C82   S    
C4    H3    S    
C5    N15   A    
C26   H5    S    
C28   C34   A    
C59   C60   A    
C13   C14   A    
N10   N13   A    
C3    N14   A    
N3    Ni4   S    
C1    N1    A    
C3    H54   S    
C7    C56   A    
C74   C82   A    
C12   C47   S    
C35   C41   A    
C76   C83   A    
C37   H10   S    
N16   Ni2   S    
C77   C79   A    
C27   C34   S    
N5    Ni1   S    
C46   H13   S    
C28   N3    A    
C2    H45   S    
C64   N6    A    
C70   C80   S    
C18   H2    S    
N9    Ni2   S    
C24   C25   A    
C56   N9    A    
C24   H7    S    
C5    C7    A    
C38   H11   S    
C10   H56   S    
C55   H25   S    
C85   C86   S    
C48   H15   S    
C33   C37   A    
C87   N12   A    
C81   H33   S    
C60   C61   A    
C51   C53   A    
N8    N14   A    
C42   C48   A    
C43   C44   A    
N9    N15   A    
C37   C38   A    
C53   C62   S    
C58   C65   A    
C47   C48   A    
C64   H43   S    
C30   C31   A    
C2    N13   A    
C73   H36   S    
C40   H38   S    
C50   C51   A    
C73   C79   A    
C60   H29   S    
C77   H41   S    
C84   C85   S    
C75   C77   A    
N7    Ni3   S    
C28   H26   S    
C39   C46   A    
N1    N7    A    
C67   H23   S    
C16   C23   A    
C26   C27   A    
C22   C24   A    
C36   C44   A    
C45   N8    A    
C42   C43   A    
C56   H12   S    
C44   H17   S    
C79   C81   S    
C16   H14   S    
C15   C17   A    
N12   Ni2   S    
C54   C55   A    
C86   H48   S    
C1    H1    S    
N2    N4    A    
C14   C15   A    
C8    C31   S    
C31   C32   A    
C2    C8    A    
C75   H32   S    
C51   H28   S    
C80   C81   D    
C75   C82   A    
C57   C61   A    
C80   H39   S    
N10   Ni3   S    
C1    C83   A    
N8    Ni1   S    
C34   C52   A    
C59   H20   S    
C30   C36   A    
C72   H37   S    
C17   C25   A    
C32   C33   A    
C23   C65   S    
C52   H42   S    
C62   H27   S    
C49   C55   A    
C9    C87   A    
C11   C13   A    
C78   N11   A    
C57   C58   A    
C38   C39   A    
C20   C26   A    
N11   Ni4   S    
C33   C35   A    
C40   N4    A    
C9    C78   A    
C6    C49   S    
C69   C70   A    
C78   H34   S    
C10   C11   A    
N13   Ni1   S    
N14   Ni4   S    
C86   H47   S    
C15   C21   A    
N6    Ni4   S    
C20   C21   A    
C84   H52   S    
C8    C67   A    
C52   N5    A    
C49   C50   A    
C50   H18   S    
C4    N16   A    
C71   C72   A    
C21   C22   A    
C85   H50   S    
C59   C65   A    
