data_mof_unit_63713.cif
_audit_creation_date              2012-12-10T16:44:49-0500
_audit_creation_method            fapswitch 2.2
_symmetry_space_group_name_H-M    P1
_symmetry_Int_Tables_number       1
_space_group_crystal_system       triclinic
_cell_length_a                    18.426878
_cell_length_b                    18.471732
_cell_length_c                    18.453808
_cell_angle_alpha                 119.703059
_cell_angle_beta                  119.579195
_cell_angle_gamma                 90.5599
_cell_volume                      4467.77753627

loop_
_atom_site_label
_atom_site_type_symbol
_atom_type_description
_atom_site_fract_x
_atom_site_fract_y
_atom_site_fract_z
_atom_type_partial_charge
C1    C     C_R   0.138583 0.361636 0.998803 0.792452
C2    C     C_R   0.928914 0.231948 0.203686 0.638785
C3    C     C_R   0.978669 0.286026 0.200827 -0.096814
C4    C     C_R   0.860584 0.637740 0.999250 0.917525
C5    C     C_R   0.936446 0.309304 0.133250 -0.294488
C6    C     C_2   0.702247 0.756958 0.921356 -0.144243
C7    C     C_2   0.695721 0.807315 0.000261 -0.410641
C8    C     C_2   0.767631 0.710949 0.929560 0.639659
C9    C     C_2   0.798794 0.686560 0.993946 -0.441125
C10   C     C_2   0.725565 0.281859 0.444040 0.594101
C11   C     C_2   0.690462 0.193158 0.387865 -0.529768
C12   C     C_R   0.560210 0.191450 0.863398 0.576491
C13   C     C_2   0.776165 0.337830 0.555873 0.594070
C14   C     C_2   0.809736 0.305343 0.612135 -0.534736
C15   C     C_2   0.332650 0.276709 0.047236 -0.198577
C16   C     C_R   0.138329 0.638268 0.276985 0.716307
C17   C     C_2   0.305954 0.191994 0.014432 -0.164900
C18   C     C_2   0.279651 0.334490 0.060241 0.496150
C19   C     C_2   0.192818 0.306256 0.987243 0.337168
C20   C     C_2   0.218115 0.775149 0.937357 -0.144858
C21   C     C_2   0.305945 0.811048 0.006333 -0.279796
C22   C     C_2   0.162114 0.723437 0.941591 -0.135056
C23   C     C_R   0.654655 0.220605 0.931438 -0.067655
C24   C     C_2   0.195424 0.688669 0.994742 -0.275231
C25   C     C_2   0.220277 0.766287 0.554488 -0.156627
C26   C     C_2   0.306267 0.816385 0.613241 0.556361
C27   C     C_2   0.165525 0.730054 0.445973 -0.158285
C28   C     C_R   0.861670 0.361517 0.722910 0.952122
C29   C     C_2   0.192918 0.682604 0.386709 0.551903
C30   C     C_R   0.638428 0.138538 0.277086 0.948615
C31   C     C_R   0.361480 0.861489 0.723041 0.741932
C32   C     C_R   0.637697 0.860445 0.998763 0.891163
C33   C     C_R   0.361417 0.138269 0.001741 0.839556
C34   C     C_R   0.707644 0.275895 0.929994 -0.037146
C35   C     C_R   0.360418 0.861052 0.000664 0.852939
C36   C     C_R   0.640506 0.139784 0.000510 0.930072
C37   C     C_R   0.139623 0.638835 0.999263 0.847451
C38   C     C_R   0.859176 0.360189 0.999131 0.796898
C39   C     C_R   0.663511 0.300358 0.860078 0.004403
C40   C     C_R   0.571279 0.270033 0.795279 -0.299090
C41   C     C_R   0.520063 0.216207 0.796653 -0.067663
C42   C     C_1   0.074114 0.318094 0.267625 0.289765
C43   C     C_1   0.227967 0.153632 0.001881 0.293736
C44   C     C_1   0.707498 0.356584 0.849977 0.179696
C45   C     C_R   0.696420 0.195628 0.000213 -0.106803
C46   C     C_1   0.178175 0.745559 0.593966 0.186687
C47   C     C_1   0.083008 0.748102 0.407260 0.198951
C48   C     C_1   0.424798 0.186156 0.728487 0.304110
C49   C     C_1   0.792716 0.144264 0.149524 0.265343
C50   C     C_1   0.646588 0.746208 0.824883 0.368062
C51   C     C_R   0.790609 0.224253 0.068287 -0.060680
C52   C     C_R   0.842692 0.279331 0.066266 0.082658
C53   C     C_R   0.801656 0.304254 0.998006 -0.066769
C54   C     C_R   0.836099 0.200563 0.138957 -0.159887
F1    F     F_    0.793375 0.690477 0.865979 -0.602487
F2    F     F_    0.713396 0.324441 0.398359 -0.569262
F3    F     F_    0.790007 0.426132 0.601448 -0.558572
F4    F     F_    0.321865 0.418183 0.146950 -0.616022
F5    F     F_    0.153324 0.225924 0.896150 -0.654105
F6    F     F_    0.342706 0.833773 0.572411 -0.590007
F7    F     F_    0.270916 0.667414 0.427046 -0.588159
F8    F     F_    0.504907 0.138637 0.859931 -0.682575
F9    F     F_    0.971314 0.209468 0.270200 -0.643370
H1    H     H_    0.737099 0.813688 0.071348 0.165914
H2    H     H_    0.538617 0.288744 0.742791 0.178048
H3    H     H_    0.978553 0.351529 0.134169 0.150227
H4    H     H_    0.775259 0.698103 0.040925 0.130319
H5    H     H_    0.697054 0.158073 0.422255 0.132386
H6    H     H_    0.801957 0.235849 0.577810 0.137692
H7    H     H_    0.396701 0.305727 0.067071 0.195631
H8    H     H_    0.185586 0.784849 0.876758 0.196854
H9    H     H_    0.339989 0.806553 0.070619 0.159119
H10   H     H_    0.091585 0.712865 0.898376 0.204437
H11   H     H_    0.264480 0.693912 0.034190 0.160747
N1    N     N_1   0.150717 0.343863 0.321209 -0.148302
N2    N     N_1   0.165960 0.122941 0.992017 -0.148925
N3    N     N_1   0.741734 0.401469 0.841033 -0.211870
N4    N     N_1   0.144478 0.728891 0.625244 -0.145584
N5    N     N_1   0.017275 0.762641 0.376618 -0.138928
N6    N     N_1   0.348370 0.162027 0.673812 -0.150096
N7    N     N_1   0.758972 0.099349 0.158828 -0.204435
N8    N     N_1   0.602217 0.737445 0.747780 -0.114113
O1    O     O_3   1.000000 0.500000 0.000000 -0.534933
O2    O     O_R   0.325040 0.054120 0.939900 -0.625205
O3    O     O_R   0.444330 0.884140 0.060080 -0.643702
O4    O     O_R   0.054210 0.325030 0.939940 -0.604073
O5    O     O_R   0.615830 0.175840 0.060080 -0.608264
O6    O     O_R   0.324160 0.884140 0.939910 -0.642668
O7    O     O_R   0.615850 0.055700 0.939930 -0.607850
O8    O     O_R   0.614980 0.885710 0.939940 -0.643184
O9    O     O_R   0.445830 0.174930 0.060060 -0.622579
O10   O     O_R   0.614300 0.054120 0.229160 -0.648421
O11   O     O_R   0.325070 0.885060 0.770830 -0.665578
O12   O     O_R   0.054160 0.614240 0.229150 -0.675444
O13   O     O_R   0.885070 0.614240 0.060060 -0.645069
O14   O     O_R   0.174980 0.614900 0.229170 -0.567198
O15   O     O_R   0.885740 0.445830 0.770840 -0.557615
O16   O     O_R   0.175880 0.615810 0.060090 -0.633263
O17   O     O_R   0.884210 0.324110 0.939920 -0.627672
O18   O     O_R   0.055710 0.615810 0.939920 -0.633041
O19   O     O_R   0.884190 0.444260 0.060070 -0.629307
O20   O     O_R   0.885120 0.325030 0.770840 -0.640800
O21   O     O_R   0.175010 0.445830 0.060100 -0.598422
O22   O     O_R   0.885710 0.614900 0.939900 -0.553678
O23   O     O_3   0.500040 0.999960 0.000000 -0.522794
O24   O     O_R   0.614930 0.174930 0.229160 -0.568497
O25   O     O_R   0.445880 0.885710 0.770850 -0.573064
O26   O     O_R   0.614330 0.885060 0.060100 -0.631371
Zn1   Zn    Zn3+2 0.956610 0.542450 0.085830 0.994187
Zn2   Zn    Zn3+2 0.129220 0.543380 0.085850 1.055111
Zn3   Zn    Zn3+2 0.957530 0.543380 0.914160 1.078256
Zn4   Zn    Zn3+2 0.956640 0.370790 0.914170 1.021774
Zn5   Zn    Zn3+2 0.543440 0.957510 0.914170 1.068423
Zn6   Zn    Zn3+2 0.542510 0.956570 0.085840 0.990924
Zn7   Zn    Zn3+2 0.370820 0.956570 0.914150 1.014849
Zn8   Zn    Zn3+2 0.543410 0.129170 0.085830 1.081315

loop_
_geom_bond_atom_site_label_1
_geom_bond_atom_site_label_2
_ccdc_geom_bond_type
C28   O15   A    
C36   O7    A    
C15   C18   S    
C3    C42   S    
C23   C45   A    
C27   C29   D    
O23   Zn8   S    
O20   Zn4   S    
C47   N5    T    
C9    H4    S    
C11   H5    S    
C12   C23   A    
C42   N1    T    
O21   Zn2   S    
O16   Zn2   S    
O23   Zn5   S    
O3    Zn6   S    
C38   O19   A    
C33   O9    A    
O15   Zn3   S    
C13   F3    S    
C45   C51   A    
O19   Zn1   S    
C49   C54   S    
C1    O4    A    
O9    Zn8   S    
C18   C19   D    
O11   Zn7   S    
O8    Zn5   S    
O26   Zn6   S    
O25   Zn5   S    
C18   F4    S    
C32   O8    A    
C11   C30   S    
C8    C9    D    
O1    Zn1   S    
C20   H8    S    
C10   F2    S    
C1    O21   A    
C26   C31   S    
C13   C14   D    
C30   O24   A    
C17   C33   S    
C8    F1    S    
C37   O16   A    
O7    Zn5   S    
C36   O5    A    
C29   F7    S    
C16   O14   A    
C1    C19   S    
C21   H9    S    
C34   C39   A    
O23   Zn6   S    
C30   O10   A    
O1    Zn3   S    
C2    C54   A    
C39   C40   A    
C46   N4    T    
C5    H3    S    
C6    C8    S    
C19   F5    S    
C16   C29   S    
C31   O11   A    
O14   Zn2   S    
C51   C52   A    
O24   Zn8   S    
O4    Zn4   S    
C17   C43   S    
C12   C41   A    
C4    O13   A    
C12   F8    S    
C35   O6    A    
C23   C34   A    
C24   C37   S    
O1    Zn2   S    
C36   C45   S    
C5    C52   A    
C6    C50   S    
O5    Zn8   S    
C39   C44   S    
O18   Zn3   S    
C40   C41   A    
C20   C22   S    
O2    Zn7   S    
C40   H2    S    
O13   Zn1   S    
C14   H6    S    
C22   C24   D    
C52   C53   A    
C50   N8    T    
C27   C47   S    
C43   N2    T    
C15   C17   D    
C15   H7    S    
C2    F9    S    
C44   N3    T    
C7    C32   S    
C31   O25   A    
O23   Zn7   S    
C38   O17   A    
C3    C5    A    
C10   C13   S    
O22   Zn3   S    
C6    C7    D    
C21   C35   S    
C25   C27   S    
O12   Zn1   S    
C16   O12   A    
C51   C54   A    
C48   N6    T    
O6    Zn7   S    
C2    C3    A    
C25   C26   D    
C35   O3    A    
C24   H11   S    
C38   C53   S    
O10   Zn6   S    
O17   Zn4   S    
C4    O22   A    
C41   C48   S    
C49   N7    T    
C33   O2    A    
C7    H1    S    
C10   C11   D    
C28   O20   A    
C20   C21   D    
C34   C53   A    
C32   O26   A    
O1    Zn4   S    
C22   H10   S    
C14   C28   S    
C4    C9    S    
C26   F6    S    
C25   C46   S    
C37   O18   A    
