data_mof_unit_46686.cif
_audit_creation_date              2012-10-26T20:21:14-0400
_audit_creation_method            fapswitch 2.2
_symmetry_space_group_name_H-M    P1
_symmetry_Int_Tables_number       1
_space_group_crystal_system       triclinic
_cell_length_a                    9.5265
_cell_length_b                    10.833339
_cell_length_c                    15.427077
_cell_angle_alpha                 89.899084
_cell_angle_beta                  74.467403
_cell_angle_gamma                 90.010053
_cell_volume                      1533.98283466

loop_
_atom_site_label
_atom_site_type_symbol
_atom_type_description
_atom_site_fract_x
_atom_site_fract_y
_atom_site_fract_z
_atom_type_partial_charge
C1    C     C_R   0.999928 0.262092 0.500070 0.551139
C2    C     C_R   0.127703 0.063891 0.499644 -0.139704
C3    C     C_R   0.000062 0.871770 0.499912 0.019779
C4    C     C_R   0.999937 0.128230 0.500088 0.019779
C5    C     C_R   0.548497 0.428384 0.559411 0.007675
C6    C     C_R   0.451503 0.571616 0.440589 0.007675
C7    C     C_R   0.399707 0.428561 0.559488 0.006305
C8    C     C_R   0.600293 0.571438 0.440512 0.006305
C9    C     C_R   0.918316 0.498419 0.672265 0.547014
C10   C     C_R   0.081684 0.501581 0.327735 0.547014
C11   C     C_R   0.873131 0.487422 0.770514 -0.003178
C12   C     C_R   0.000072 0.737908 0.499930 0.551140
C13   C     C_R   0.126869 0.512578 0.229486 -0.003178
C14   C     C_R   0.918098 0.426961 0.911497 -0.143878
C15   C     C_R   0.081902 0.573038 0.088503 -0.143878
C16   C     C_R   0.967740 0.442185 0.818554 -0.138466
C17   C     C_R   0.032259 0.557815 0.181446 -0.138466
C18   C     C_R   0.728832 0.514209 0.815864 -0.134938
C19   C     C_R   0.271168 0.485791 0.184136 -0.134938
C20   C     C_R   0.672057 0.485118 0.907128 0.028266
C21   C     C_R   0.327943 0.514881 0.092872 0.028266
C22   C     C_R   0.772010 0.451760 0.956314 0.033218
C23   C     C_R   0.589851 0.496419 0.094949 -0.006792
C24   C     C_R   0.227989 0.548240 0.043686 0.033219
C25   C     C_R   0.521056 0.497003 0.951935 0.032629
C26   C     C_R   0.478944 0.502997 0.048065 0.032629
C27   C     C_3   0.575631 0.550479 0.187282 -0.416194
C28   C     C_3   0.424369 0.449520 0.812718 -0.416194
C29   C     C_R   0.410149 0.503581 0.905051 -0.006792
C30   C     C_R   0.728896 0.455340 0.049698 -0.119639
C31   C     C_R   0.271104 0.544659 0.950301 -0.119639
C32   C     C_R   0.872223 0.063818 0.500471 -0.139010
C33   C     C_R   0.127777 0.936181 0.499528 -0.139010
C34   C     C_R   0.872297 0.936109 0.500356 -0.139704
Cu1   Cu    Cu3+1 0.140660 0.500020 0.500000 0.930633
Cu2   Cu    Cu3+1 0.859340 0.499980 0.500000 0.930633
H1    H     H_    0.809059 0.440504 0.087051 0.114322
H2    H     H_    0.227692 0.888188 0.499138 0.128510
H3    H     H_    0.772441 0.888059 0.500643 0.128348
H4    H     H_    0.227559 0.111941 0.499357 0.128348
H5    H     H_    0.583762 0.370721 0.606893 0.108166
H6    H     H_    0.416238 0.629279 0.393107 0.108167
H7    H     H_    0.322960 0.371285 0.607143 0.102290
H8    H     H_    0.677040 0.628715 0.392857 0.102290
H9    H     H_    0.483386 0.616090 0.207606 0.137900
H10   H     H_    0.565931 0.475644 0.237820 0.130820
H11   H     H_    0.674161 0.605615 0.186856 0.117748
H12   H     H_    0.190941 0.559496 0.912949 0.114322
H13   H     H_    0.434069 0.524356 0.762180 0.130820
H14   H     H_    0.516614 0.383909 0.792394 0.137900
H15   H     H_    0.325839 0.394385 0.813145 0.117748
H16   H     H_    0.337332 0.439037 0.220733 0.134421
H17   H     H_    0.662668 0.560963 0.779267 0.134421
H18   H     H_    0.920234 0.579897 0.215436 0.117053
H19   H     H_    0.079766 0.420103 0.784564 0.117054
H20   H     H_    0.994105 0.397448 0.948533 0.111019
H21   H     H_    0.005895 0.602551 0.051467 0.111019
H22   H     H_    0.772308 0.111812 0.500862 0.128510
N1    N     N_R   0.352080 0.500030 0.499980 -0.222427
N2    N     N_R   0.647920 0.499970 0.500020 -0.222428
O1    O     O_R   0.118740 0.319660 0.500000 -0.507332
O2    O     O_R   0.881260 0.680340 0.500000 -0.507332
O3    O     O_R   0.881170 0.319630 0.500010 -0.505660
O4    O     O_R   0.118830 0.680370 0.499990 -0.505659
O5    O     O_R   0.055570 0.500030 0.629830 -0.501502
O6    O     O_R   0.944430 0.499970 0.370170 -0.501502
O7    O     O_R   0.818000 0.500000 0.629840 -0.508537
O8    O     O_R   0.182000 0.500000 0.370160 -0.508537

loop_
_geom_bond_atom_site_label_1
_geom_bond_atom_site_label_2
_ccdc_geom_bond_type
C2    C4    A    
C21   C26   A    
C9    O7    A    
C11   C18   A    
Cu1   O4    S    
C23   C27   S    
Cu2   O3    S    
C9    C11   S    
C11   C16   A    
C14   H20   S    
Cu1   Cu2   S    
C5    N2    A    
C13   C17   A    
C32   H22   S    
C29   C31   A    
C1    C4    S    
C10   O8    A    
C14   C22   A    
C9    O5    A    
C6    C8    A    
Cu2   O7    S    
C5    C7    A    
Cu1   O1    S    
C15   C24   A    
C8    N2    A    
C15   H21   S    
C27   H9    S    
C4    C32   A    
Cu1   O8    S    
Cu2   O2    S    
C19   H16   S    
C2    C33   A    
C7    N1    A    
C28   C29   S    
C19   C21   A    
C20   C22   A    
Cu2   O6    S    
C31   H12   S    
C10   O6    A    
C25   C29   A    
C8    H8    S    
C12   O4    A    
C28   H15   S    
C14   C16   A    
C21   C24   A    
C16   H19   S    
C20   C25   A    
C3    C33   A    
C34   H3    S    
C23   C30   A    
C2    H4    S    
C12   O2    A    
C27   H10   S    
C18   C20   A    
Cu1   N1    S    
C6    H6    S    
C23   C26   A    
C27   H11   S    
C7    H7    S    
C15   C17   A    
C17   H18   S    
Cu1   O5    S    
C1    O3    A    
C13   C19   A    
C5    H5    S    
C3    C12   S    
C22   C30   A    
C3    C34   A    
C24   C31   A    
C25   C26   A    
C18   H17   S    
C28   H14   S    
C6    N1    A    
C10   C13   S    
C33   H2    S    
C30   H1    S    
C32   C34   A    
Cu2   N2    S    
C28   H13   S    
C1    O1    A    
