data_mof_unit_18469.cif
_audit_creation_date              2012-12-11T14:01:10-0500
_audit_creation_method            fapswitch 2.2
_symmetry_space_group_name_H-M    P1
_symmetry_Int_Tables_number       1
_space_group_crystal_system       triclinic
_cell_length_a                    19.140567
_cell_length_b                    10.914553
_cell_length_c                    18.80196
_cell_angle_alpha                 90.389727
_cell_angle_beta                  90.241972
_cell_angle_gamma                 90.046679
_cell_volume                      3927.80395296

loop_
_atom_site_label
_atom_site_type_symbol
_atom_type_description
_atom_site_fract_x
_atom_site_fract_y
_atom_site_fract_z
_atom_type_partial_charge
C1    C     C_R   0.272845 0.042482 0.853589 0.562135
C2    C     C_R   0.727194 0.042025 0.146442 0.561310
C3    C     C_R   0.772845 0.542482 0.853589 0.562135
C4    C     C_R   0.227194 0.542025 0.146442 0.561310
C5    C     C_R   0.477913 0.051173 0.076170 -0.088316
C6    C     C_R   0.502744 0.061581 0.930412 -0.082116
C7    C     C_R   0.977913 0.551173 0.076170 -0.088316
C8    C     C_R   0.002744 0.561581 0.930412 -0.082116
C9    C     C_R   0.976768 0.663550 0.041414 -0.126941
C10   C     C_R   0.991331 0.669099 0.969122 -0.125221
C11   C     C_R   0.476768 0.163550 0.041414 -0.126940
C12   C     C_R   0.491331 0.169099 0.969122 -0.125220
C13   C     C_2   0.249498 0.580416 0.920501 -0.109977
C14   C     C_2   0.750352 0.579244 0.079360 -0.108732
C15   C     C_2   0.749498 0.080416 0.920501 -0.109976
C16   C     C_2   0.250352 0.079244 0.079360 -0.108731
C17   C     C_2   0.249317 0.586775 0.077246 -0.105655
C18   C     C_2   0.750868 0.587599 0.923016 -0.105881
C19   C     C_2   0.749317 0.086775 0.077246 -0.105655
C20   C     C_2   0.250868 0.087599 0.923016 -0.105881
C21   C     C_2   0.294572 0.522169 0.037516 -0.165823
C22   C     C_2   0.704889 0.523644 0.961811 -0.166614
C23   C     C_2   0.794572 0.022169 0.037516 -0.165823
C24   C     C_2   0.204889 0.023644 0.961811 -0.166614
C25   C     C_2   0.303782 0.547803 0.961739 -0.161321
C26   C     C_2   0.695865 0.548124 0.037818 -0.161046
C27   C     C_2   0.803782 0.047803 0.961739 -0.161321
C28   C     C_2   0.195865 0.048124 0.037818 -0.161046
C29   C     C_2   0.435914 0.813324 0.562451 -0.099441
C30   C     C_2   0.480293 0.820707 0.413658 -0.111147
C31   C     C_2   0.935914 0.313324 0.562451 -0.099440
C32   C     C_2   0.980293 0.320707 0.413657 -0.111148
C33   C     C_2   0.452635 0.713040 0.441802 -0.018911
C34   C     C_2   0.438403 0.707965 0.521097 -0.018388
C35   C     C_2   0.952635 0.213040 0.441802 -0.018911
C36   C     C_2   0.938403 0.207965 0.521097 -0.018388
C37   C     C_2   0.239482 0.555739 0.588601 0.210052
C38   C     C_2   0.758440 0.562751 0.414183 0.222277
C39   C     C_2   0.739481 0.055739 0.588601 0.210051
C40   C     C_2   0.258440 0.062751 0.414183 0.222277
C41   C     C_2   0.238267 0.576830 0.425927 0.004035
C42   C     C_2   0.760394 0.572541 0.573498 0.067569
C43   C     C_2   0.738267 0.076830 0.425927 0.004035
C44   C     C_2   0.260394 0.072541 0.573498 0.067570
C45   C     C_R   0.471942 0.822986 0.852941 0.548756
C46   C     C_R   0.528699 0.821698 0.146629 0.532959
C47   C     C_R   0.971942 0.322986 0.852941 0.548756
C48   C     C_R   0.028699 0.321698 0.146629 0.532959
C49   C     C_2   0.186557 0.554148 0.471594 -0.039846
C50   C     C_2   0.815914 0.580083 0.530542 -0.080814
C51   C     C_2   0.686557 0.054148 0.471594 -0.039846
C52   C     C_2   0.315914 0.080083 0.530542 -0.080814
C53   C     C_2   0.192476 0.600830 0.542825 -0.115202
C54   C     C_2   0.808985 0.608073 0.456435 -0.147574
C55   C     C_2   0.692476 0.100831 0.542825 -0.115203
C56   C     C_2   0.308986 0.108073 0.456435 -0.147574
C57   C     C_R   0.261212 0.636517 0.851467 0.558502
C58   C     C_R   0.738817 0.635879 0.148585 0.556092
C59   C     C_R   0.761212 0.136517 0.851467 0.558503
C60   C     C_R   0.238817 0.135879 0.148585 0.556092
C61   C     C_R   0.273817 0.042564 0.646638 0.568560
C62   C     C_R   0.726393 0.044370 0.352821 0.571878
C63   C     C_R   0.773817 0.542564 0.646638 0.568560
C64   C     C_R   0.226393 0.544370 0.352821 0.571878
C65   C     C_R   0.433421 0.816208 0.641085 0.573529
C66   C     C_R   0.525969 0.821892 0.350194 0.542038
C67   C     C_R   0.933421 0.316208 0.641085 0.573530
C68   C     C_R   0.025969 0.321892 0.350194 0.542038
C69   C     C_R   0.259226 0.632845 0.648286 0.554417
C70   C     C_R   0.740610 0.633510 0.351919 0.586922
C71   C     C_R   0.759226 0.132845 0.648286 0.554418
C72   C     C_R   0.240610 0.133510 0.351919 0.586922
C73   C     C_R   0.502770 0.828335 0.073527 0.004507
C74   C     C_R   0.501349 0.833611 0.924706 -0.002118
C75   C     C_R   0.002770 0.328335 0.073527 0.004507
C76   C     C_R   0.001349 0.333611 0.924706 -0.002118
C77   C     C_R   0.493188 0.941800 0.038617 0.025209
C78   C     C_R   0.499321 0.945804 0.963648 0.024501
C79   C     C_R   0.993188 0.441800 0.038617 0.025209
C80   C     C_R   0.999321 0.445804 0.963648 0.024501
C81   C     C_R   0.509802 0.723112 0.960744 -0.154861
C82   C     C_R   0.508800 0.720169 0.033455 -0.151196
C83   C     C_R   0.009802 0.223112 0.960744 -0.154861
C84   C     C_R   0.008800 0.220169 0.033455 -0.151196
Cr1   Cr    Cr6+3 0.230530 0.836340 0.748870 1.019348
Cr2   Cr    Cr6+3 0.769470 0.836340 0.251130 0.991606
Cr3   Cr    Cr6+3 0.730530 0.336340 0.748870 1.019348
Cr4   Cr    Cr6+3 0.269470 0.336340 0.251130 0.991606
Cr5   Cr    Cr6+3 0.387420 0.989430 0.750820 1.033083
Cr6   Cr    Cr6+3 0.612580 0.989430 0.249180 1.041023
Cr7   Cr    Cr6+3 0.887420 0.489430 0.750820 1.033083
Cr8   Cr    Cr6+3 0.112580 0.489430 0.249180 1.041023
Cr9   Cr    Cr6+3 0.385640 0.677860 0.749230 1.026485
Cr10  Cr    Cr6+3 0.614360 0.677860 0.250770 1.046577
Cr11  Cr    Cr6+3 0.885640 0.177860 0.749230 1.026485
Cr12  Cr    Cr6+3 0.114360 0.177860 0.250770 1.046577
H1    H     H_    0.513217 0.636237 0.932689 0.137307
H2    H     H_    0.515903 0.631616 0.058147 0.135478
H3    H     H_    0.013217 0.136237 0.932689 0.137307
H4    H     H_    0.015903 0.131616 0.058147 0.135478
H5    H     H_    0.137151 0.513973 0.454653 0.143049
H6    H     H_    0.868923 0.579344 0.551268 0.130544
H7    H     H_    0.637151 0.013973 0.454653 0.143049
H8    H     H_    0.368923 0.079344 0.551268 0.130544
H9    H     H_    0.168530 0.690031 0.551121 0.182686
H10   H     H_    0.842301 0.682947 0.439674 0.157676
H11   H     H_    0.668531 0.190032 0.551121 0.182687
H12   H     H_    0.342301 0.182946 0.439674 0.157676
H13   H     H_    0.286734 0.619629 0.442787 0.104166
H14   H     H_    0.707140 0.576889 0.553664 0.172194
H15   H     H_    0.786734 0.119629 0.442786 0.104167
H16   H     H_    0.207140 0.076889 0.553664 0.172194
H17   H     H_    0.465395 0.050618 0.132202 0.126873
H18   H     H_    0.515977 0.070649 0.874871 0.133638
H19   H     H_    0.965395 0.550617 0.132202 0.126873
H20   H     H_    0.015977 0.570649 0.874871 0.133638
H21   H     H_    0.965724 0.746777 0.070920 0.108953
H22   H     H_    0.993039 0.756907 0.942748 0.107945
H23   H     H_    0.465724 0.246777 0.070920 0.108952
H24   H     H_    0.493039 0.256907 0.942748 0.107944
H25   H     H_    0.324575 0.447379 0.060122 0.151715
H26   H     H_    0.674228 0.449909 0.938278 0.153414
H27   H     H_    0.824575 0.947379 0.060122 0.151715
H28   H     H_    0.174228 0.949909 0.938278 0.153414
H29   H     H_    0.356389 0.542534 0.940469 0.154882
H30   H     H_    0.643246 0.543491 0.059021 0.150342
H31   H     H_    0.856389 0.042534 0.940469 0.154882
H32   H     H_    0.143246 0.043491 0.059021 0.150342
H33   H     H_    0.221111 0.663771 0.054662 0.114646
H34   H     H_    0.779679 0.663744 0.946488 0.114724
H35   H     H_    0.721111 0.163771 0.054662 0.114646
H36   H     H_    0.279679 0.163744 0.946488 0.114723
H37   H     H_    0.196796 0.582215 0.941818 0.111464
H38   H     H_    0.803086 0.580304 0.058105 0.112899
H39   H     H_    0.696796 0.082215 0.941818 0.111464
H40   H     H_    0.303086 0.080304 0.058105 0.112899
H41   H     H_    0.479735 0.907330 0.441435 0.078159
H42   H     H_    0.433962 0.902759 0.538946 0.059900
H43   H     H_    0.979735 0.407330 0.441435 0.078159
H44   H     H_    0.933962 0.402759 0.538946 0.059900
O1    O     O_R   0.215090 0.709860 0.828130 -0.521433
O2    O     O_R   0.784910 0.709860 0.171870 -0.527414
O3    O     O_R   0.715090 0.209860 0.828130 -0.521433
O4    O     O_R   0.284910 0.209860 0.171870 -0.527414
O5    O     O_R   0.445660 0.919250 0.676780 -0.499197
O6    O     O_R   0.554340 0.919250 0.323220 -0.502934
O7    O     O_R   0.945660 0.419250 0.676780 -0.499197
O8    O     O_R   0.054340 0.419250 0.323220 -0.502934
O9    O     O_R   0.456260 0.718170 0.670000 -0.530091
O10   O     O_R   0.543740 0.718170 0.330000 -0.531355
O11   O     O_R   0.956260 0.218170 0.670000 -0.530091
O12   O     O_R   0.043740 0.218170 0.330000 -0.531355
O13   O     O_R   0.320940 0.626760 0.674370 -0.511744
O14   O     O_R   0.679060 0.626760 0.325630 -0.448157
O15   O     O_R   0.820940 0.126760 0.674370 -0.511744
O16   O     O_R   0.179060 0.126760 0.325630 -0.448157
O17   O     O_3   0.334530 0.834540 0.749640 -0.279435
O18   O     O_3   0.665470 0.834540 0.250360 -0.251656
O19   O     O_3   0.834530 0.334540 0.749640 -0.279435
O20   O     O_3   0.165470 0.334540 0.250360 -0.251656
O21   O     O_R   0.236990 0.958390 0.823710 -0.498175
O22   O     O_R   0.763010 0.958390 0.176290 -0.505855
O23   O     O_R   0.736990 0.458390 0.823710 -0.498175
O24   O     O_R   0.263010 0.458390 0.176290 -0.505855
O25   O     O_R   0.332380 0.074750 0.830850 -0.504891
O26   O     O_R   0.667620 0.074750 0.169150 -0.503190
O27   O     O_R   0.832380 0.574750 0.830850 -0.504891
O28   O     O_R   0.167620 0.574750 0.169150 -0.503190
O29   O     O_R   0.445800 0.917770 0.825070 -0.506053
O30   O     O_R   0.554200 0.917770 0.174930 -0.507754
O31   O     O_R   0.945800 0.417770 0.825070 -0.506053
O32   O     O_R   0.054200 0.417770 0.174930 -0.507754
O33   O     O_R   0.456410 0.716580 0.829970 -0.520205
O34   O     O_R   0.543590 0.716580 0.170030 -0.532674
O35   O     O_R   0.956410 0.216580 0.829970 -0.520205
O36   O     O_R   0.043590 0.216580 0.170030 -0.532674
O37   O     O_R   0.321080 0.625290 0.822650 -0.488749
O38   O     O_R   0.678920 0.625290 0.177350 -0.493355
O39   O     O_R   0.821080 0.125290 0.822650 -0.488749
O40   O     O_R   0.178920 0.125290 0.177350 -0.493355
O41   O     O_R   0.214930 0.711450 0.668160 -0.533913
O42   O     O_R   0.785070 0.711450 0.331840 -0.560072
O43   O     O_R   0.714930 0.211450 0.668160 -0.533913
O44   O     O_R   0.285070 0.211450 0.331840 -0.560071
O45   O     O_R   0.236850 0.959870 0.675420 -0.499827
O46   O     O_R   0.763150 0.959870 0.324580 -0.512927
O47   O     O_R   0.736850 0.459870 0.675420 -0.499827
O48   O     O_R   0.263150 0.459870 0.324580 -0.512927
O49   O     O_R   0.332230 0.076350 0.670880 -0.498214
O50   O     O_R   0.667770 0.076350 0.329120 -0.477523
O51   O     O_R   0.832230 0.576350 0.670880 -0.498213
O52   O     O_R   0.167770 0.576350 0.329120 -0.477523
S1    S     S_3+6 0.265664 0.400520 0.585691 -0.047090
O53   O     O_2   0.295439 0.369314 0.514228 -0.336954
O54   O     O_2   0.319007 0.373329 0.642318 -0.301258
O55   O     O_3   0.194112 0.314393 0.598850 -0.538628
H45   H     H_    0.179584 0.333008 0.648254 0.341890
S2    S     S_3+6 0.716999 0.420251 0.428970 -0.036562
O56   O     O_2   0.644373 0.441354 0.455985 -0.313047
O57   O     O_2   0.712619 0.350261 0.359999 -0.289264
O58   O     O_3   0.762314 0.338280 0.488704 -0.574171
H46   H     H_    0.809919 0.332107 0.468622 0.325675
S3    S     S_3+6 0.765663 0.900520 0.585692 -0.047090
O59   O     O_2   0.795442 0.869315 0.514229 -0.336956
O60   O     O_2   0.819004 0.873327 0.642320 -0.301254
O61   O     O_3   0.694110 0.814394 0.598846 -0.538630
H47   H     H_    0.679579 0.833010 0.648248 0.341890
S4    S     S_3+6 0.216999 0.920251 0.428970 -0.036562
O62   O     O_2   0.144372 0.941355 0.455984 -0.313047
O63   O     O_2   0.212619 0.850261 0.359999 -0.289264
O64   O     O_3   0.262313 0.838280 0.488704 -0.574171
H48   H     H_    0.309919 0.832107 0.468622 0.325675
C85   C     C_3   0.454111 0.593625 0.394088 -0.238168
C86   C     C_3   0.417620 0.469002 0.403594 -0.332267
C87   C     C_3   0.425904 0.390349 0.336309 -0.410336
H49   H     H_    0.396631 0.430698 0.291073 0.168319
H50   H     H_    0.481906 0.382660 0.321584 0.147716
H51   H     H_    0.406197 0.296583 0.346054 0.170593
H52   H     H_    0.442995 0.414667 0.445960 0.175207
H53   H     H_    0.361941 0.479422 0.414684 0.208735
H54   H     H_    0.435939 0.623560 0.340593 0.173836
H55   H     H_    0.509397 0.563011 0.393569 0.216296
C88   C     C_3   0.435560 0.580336 0.554040 -0.211824
C89   C     C_3   0.508423 0.522796 0.561733 -0.282206
C90   C     C_3   0.504761 0.395849 0.595198 -0.412968
H56   H     H_    0.483139 0.402386 0.649825 0.171353
H57   H     H_    0.471271 0.333763 0.562723 0.174397
H58   H     H_    0.558084 0.356127 0.598342 0.165919
H59   H     H_    0.533749 0.515107 0.509339 0.207960
H60   H     H_    0.542067 0.582510 0.595574 0.203507
H61   H     H_    0.410112 0.574586 0.604955 0.224975
H62   H     H_    0.397578 0.523384 0.526092 0.166272
C91   C     C_3   0.954111 0.093625 0.394088 -0.238168
C92   C     C_3   0.917620 0.969002 0.403594 -0.332267
C93   C     C_3   0.925904 0.890349 0.336309 -0.410337
H63   H     H_    0.896631 0.930698 0.291073 0.168319
H64   H     H_    0.981906 0.882660 0.321584 0.147716
H65   H     H_    0.906197 0.796583 0.346054 0.170593
H66   H     H_    0.942995 0.914667 0.445960 0.175207
H67   H     H_    0.861941 0.979422 0.414684 0.208735
H68   H     H_    0.935939 0.123560 0.340593 0.173836
H69   H     H_    0.009397 0.063011 0.393569 0.216297
C94   C     C_3   0.935560 0.080336 0.554040 -0.211824
C95   C     C_3   0.008423 0.022796 0.561733 -0.282206
C96   C     C_3   0.004761 0.895849 0.595198 -0.412969
H70   H     H_    0.983139 0.902386 0.649825 0.171352
H71   H     H_    0.971271 0.833763 0.562724 0.174397
H72   H     H_    0.058084 0.856128 0.598342 0.165919
H73   H     H_    0.033749 0.015107 0.509339 0.207960
H74   H     H_    0.042067 0.082510 0.595574 0.203508
H75   H     H_    0.910111 0.074586 0.604955 0.224973
H76   H     H_    0.897578 0.023385 0.526092 0.166272

loop_
_geom_bond_atom_site_label_1
_geom_bond_atom_site_label_2
_ccdc_geom_bond_type
C16   C28   D    
Cr3   O23   S    
S3    O59   D    
C38   C70   S    
C15   C59   S    
Cr9   O33   S    
C72   O16   A    
C39   S3    S    
Cr8   O8    S    
C9    H21   S    
O58   H46   S    
Cr9   O9    S    
C35   C36   S    
C53   H9    S    
C11   H23   S    
C89   C90   S    
C2    O22   A    
C40   S4    S    
C81   C82   A    
C3    O27   A    
C62   O50   A    
C77   C78   A    
C34   C88   S    
Cr5   O5    S    
C29   H42   S    
S3    O60   D    
C5    C77   A    
C50   C54   S    
C95   H74   S    
C10   H22   S    
Cr5   O49   S    
Cr7   O27   S    
C90   H56   S    
C47   C76   S    
C66   O10   A    
C37   C69   S    
C86   H52   S    
C87   H50   S    
C26   H30   S    
C8    C10   A    
C63   O51   A    
C75   C84   A    
Cr4   O44   S    
C15   H39   S    
C51   H7    S    
C94   C95   S    
Cr12  O12   S    
C24   H28   S    
C90   H58   S    
Cr1   O21   S    
C95   C96   S    
C3    C18   S    
C46   O34   A    
C16   C60   S    
C7    H19   S    
Cr11  O35   S    
C6    H18   S    
C25   H29   S    
C12   H24   S    
Cr11  O11   S    
C27   H31   S    
C70   O42   A    
C39   C55   D    
C88   C89   S    
C4    O28   A    
S4    O62   D    
C40   C56   D    
C93   H64   S    
C93   H63   S    
C38   S2    S    
S2    O56   D    
Cr2   O22   S    
C23   C27   S    
C18   C22   D    
Cr12  O36   S    
C91   C92   S    
C2    O26   A    
Cr7   O19   S    
C68   O8    A    
C3    O23   A    
C62   O46   A    
C37   C53   D    
C44   C52   D    
C1    O21   A    
Cr10  O18   S    
C30   H41   S    
C48   O32   A    
C96   H70   S    
Cr6   O26   S    
C19   H35   S    
C47   O31   A    
C82   H2    S    
C48   C75   S    
C13   C25   D    
Cr1   O17   S    
C20   H36   S    
Cr8   O52   S    
C76   C83   A    
C41   C49   D    
C64   O52   A    
C88   H61   S    
C61   O45   A    
C22   H26   S    
Cr1   O45   S    
S2    O57   D    
C14   C58   S    
S3    O61   S    
C94   H75   S    
C95   H73   S    
C54   H10   S    
C17   H33   S    
C84   H4    S    
C32   C35   D    
C71   O43   A    
C72   O44   A    
C32   H43   S    
C87   H51   S    
Cr1   O1    S    
C33   C85   S    
O61   H47   S    
Cr2   O42   S    
Cr3   O47   S    
C14   H38   S    
C51   C55   S    
S1    O54   D    
C39   C71   S    
Cr4   O24   S    
Cr7   O51   S    
C29   C34   D    
C69   O13   A    
Cr7   O7    S    
C46   O30   A    
C55   H11   S    
C45   C74   S    
C83   H3    S    
C37   S1    S    
Cr6   O18   S    
C31   C67   S    
C87   H49   S    
O64   H48   S    
Cr3   O3    S    
C68   O12   A    
C89   H60   S    
Cr2   O46   S    
C85   H55   S    
Cr8   O28   S    
C15   C27   D    
C83   C84   A    
C38   C54   D    
C85   C86   S    
Cr10  O14   S    
S1    O55   S    
C71   O15   A    
Cr6   O30   S    
S2    O58   S    
C4    O24   A    
C33   C34   S    
Cr3   O43   S    
C58   O38   A    
C92   H67   S    
C14   C26   D    
Cr9   O17   S    
Cr2   O18   S    
Cr5   O25   S    
C30   C66   S    
C22   C26   S    
C42   C50   D    
C35   C91   S    
C4    C17   S    
C44   H16   S    
C91   H68   S    
Cr12  O20   S    
Cr10  O34   S    
C50   H6    S    
C63   O47   A    
C96   H71   S    
C5    C11   A    
C67   O7    A    
C93   H65   S    
C29   C65   S    
C18   H34   S    
C76   C80   A    
C92   C93   S    
C74   C81   A    
C65   O5    A    
C16   H40   S    
C6    C12   A    
C73   C82   A    
C88   H62   S    
Cr2   O2    S    
C7    C79   A    
Cr6   O50   S    
Cr11  O39   S    
C86   C87   S    
C7    C9    A    
C21   C25   S    
C52   H8    S    
Cr11  O19   S    
Cr1   O41   S    
C58   O2    A    
C40   C72   S    
C30   C33   D    
C5    H17   S    
C2    C19   S    
C70   O14   A    
C36   C94   S    
C13   H37   S    
C1    O25   A    
C24   C28   S    
C19   C23   D    
O55   H45   S    
C1    C20   S    
Cr10  O38   S    
C45   O29   A    
C23   H27   S    
C11   C12   A    
Cr5   O17   S    
Cr7   O31   S    
C44   C61   S    
C60   O40   A    
Cr10  O10   S    
C41   C64   S    
C57   O1    A    
Cr8   O20   S    
C85   H54   S    
Cr12  O40   S    
C59   O39   A    
C42   H14   S    
Cr5   O29   S    
Cr6   O6    S    
C86   H53   S    
C89   H59   S    
C60   O4    A    
C32   C68   S    
C57   O37   A    
C43   C51   D    
Cr12  O16   S    
C81   H1    S    
Cr8   O32   S    
S4    O64   S    
C49   C53   S    
C94   H76   S    
Cr9   O13   S    
C90   H57   S    
Cr3   O19   S    
C9    C10   A    
Cr11  O15   S    
C92   H66   S    
Cr4   O20   S    
C65   O9    A    
C20   C24   D    
C17   C21   D    
C64   O48   A    
C66   O6    A    
C6    C78   A    
C8    H20   S    
C59   O3    A    
C79   C80   A    
C43   H15   S    
C28   H32   S    
C45   O33   A    
Cr4   O48   S    
C13   C57   S    
C43   C62   S    
C73   C77   A    
S4    O63   D    
S1    O53   D    
C74   C78   A    
C96   H72   S    
C91   H69   S    
C8    C80   A    
C67   O11   A    
C56   H12   S    
C31   C36   D    
C21   H25   S    
C41   H13   S    
C61   O49   A    
Cr9   O37   S    
C31   H44   S    
C75   C79   A    
C42   C63   S    
Cr4   O4    S    
C46   C73   S    
C47   O35   A    
C52   C56   S    
C49   H5    S    
C69   O41   A    
C48   O36   A    
