data_mof_unit_62757.cif
_audit_creation_date              2012-12-10T20:59:33-0500
_audit_creation_method            fapswitch 2.2
_symmetry_space_group_name_H-M    P1
_symmetry_Int_Tables_number       1
_space_group_crystal_system       triclinic
_cell_length_a                    15.723542
_cell_length_b                    15.064324
_cell_length_c                    10.70542
_cell_angle_alpha                 90.179649
_cell_angle_beta                  90.002623
_cell_angle_gamma                 89.981799
_cell_volume                      2535.72169363

loop_
_atom_site_label
_atom_site_type_symbol
_atom_type_description
_atom_site_fract_x
_atom_site_fract_y
_atom_site_fract_z
_atom_type_partial_charge
C1    C     C_R   0.338408 0.500012 0.499321 0.889576
C2    C     C_1   0.176334 0.500251 0.455315 0.011520
C3    C     C_1   0.250253 0.500041 0.478522 -0.137341
C4    C     C_1   0.749716 0.499973 0.478389 -0.121069
C5    C     C_R   0.495739 0.953068 0.391368 -0.202953
C6    C     C_R   0.495741 0.046580 0.391509 -0.162897
C7    C     C_R   0.502706 0.499926 0.257407 1.063234
C8    C     C_R   0.500286 0.905030 0.503493 0.038728
C9    C     C_R   0.500295 0.094970 0.503771 0.010901
C10   C     C_R   0.504937 0.952722 0.617139 0.138914
C11   C     C_R   0.504958 0.047290 0.617552 0.069114
C12   C     C_3   0.580308 0.437851 0.927507 0.542662
C13   C     C_1   0.500129 0.807129 0.501229 0.119915
C14   C     C_1   0.500130 0.192879 0.501310 0.090980
C15   C     C_R   0.661586 0.499989 0.499316 0.898498
C16   C     C_R   0.504324 0.500309 0.742569 0.954214
C17   C     C_3   0.530775 0.595015 0.073713 -0.237725
C18   C     C_3   0.413200 0.481346 0.071169 -0.261239
C19   C     C_3   0.524058 0.599139 0.928996 0.693329
C20   C     C_3   0.415541 0.468768 0.926859 0.706933
C21   C     C_3   0.571754 0.428517 0.073132 0.718902
C22   C     C_3   0.505537 0.499616 0.121421 -0.192731
C23   C     C_R   0.955699 0.582369 0.423653 0.430218
C24   C     C_3   0.506151 0.501080 0.878920 -0.213087
C25   C     C_R   0.955782 0.419131 0.417379 0.428264
C26   C     C_R   0.911827 0.500626 0.427234 -0.299749
C27   C     C_R   0.044251 0.419151 0.417478 0.429037
C28   C     C_R   0.044155 0.582395 0.423791 0.430933
C29   C     C_R   0.088117 0.500669 0.427449 -0.302185
C30   C     C_1   0.823618 0.500177 0.455102 0.015908
H1    H     H_    0.483021 0.642701 0.112107 0.176294
H2    H     H_    0.565466 0.923472 0.778493 0.205361
H3    H     H_    0.563659 0.134226 0.733346 0.209787
H4    H     H_    0.456138 0.134272 0.742854 0.217474
H5    H     H_    0.470580 0.716855 0.923738 0.329229
H6    H     H_    0.339432 0.503019 0.789388 0.354004
H7    H     H_    0.587596 0.675612 0.809891 0.366634
H8    H     H_    0.433963 0.338709 0.937739 0.382850
H9    H     H_    0.692256 0.399051 0.100961 0.348139
H10   H     H_    0.589996 0.299917 0.096973 0.339728
H11   H     H_    0.668224 0.470482 0.806253 0.348659
H12   H     H_    0.376237 0.543133 0.090542 0.211669
H13   H     H_    0.629874 0.321751 0.887309 0.342947
H14   H     H_    0.145993 0.656282 0.406951 0.343307
H15   H     H_    0.146187 0.346050 0.394877 0.342402
H16   H     H_    0.853814 0.656180 0.406293 0.343665
H17   H     H_    0.853941 0.345994 0.394556 0.343463
H18   H     H_    0.492145 0.081328 0.303223 0.159250
H19   H     H_    0.492146 0.918045 0.302995 0.152140
H20   H     H_    0.664076 0.595966 0.073645 0.315534
H21   H     H_    0.618517 0.693342 0.110129 0.204297
H22   H     H_    0.394208 0.349448 0.130896 0.265773
H23   H     H_    0.304836 0.406940 0.100143 0.239161
H24   H     H_    0.457983 0.923541 0.787969 0.210899
N1    N     N_1   0.500020 0.270550 0.499960 -0.069266
N2    N     N_1   0.500020 0.729450 0.499960 -0.085943
N3    N     N_3   0.613696 0.624679 0.122664 -0.376472
N4    N     N_3   0.365952 0.411702 0.138172 -0.434294
N5    N     N_3   0.509643 0.904735 0.732378 -0.456009
N6    N     N_3   0.509757 0.093608 0.734582 -0.462876
O1    O     O_R   0.378020 0.573650 0.500000 -0.606402
O2    O     O_3   0.350653 0.522728 0.876427 -0.690886
O3    O     O_3   0.600655 0.632999 0.877731 -0.762276
O4    O     O_3   0.398011 0.380202 0.890212 -0.738828
O5    O     O_3   0.650652 0.443009 0.133453 -0.766242
O6    O     O_3   0.542396 0.342819 0.104769 -0.795092
O7    O     O_3   0.660321 0.475109 0.898076 -0.743272
O8    O     O_3   0.575437 0.353081 0.870863 -0.774595
O9    O     O_3   0.084774 0.663915 0.425402 -0.666592
O10   O     O_3   0.084981 0.337721 0.412736 -0.669016
O11   O     O_3   0.914975 0.663860 0.425111 -0.668584
O12   O     O_R   0.378020 0.426350 0.500000 -0.606069
O13   O     O_3   0.915134 0.337685 0.412569 -0.671699
O14   O     O_R   0.499990 0.573670 0.314770 -0.643106
O15   O     O_R   0.499990 0.426330 0.314770 -0.564793
O16   O     O_R   0.621980 0.573680 0.499940 -0.612060
O17   O     O_R   0.621980 0.426320 0.499940 -0.610339
O18   O     O_R   0.500010 0.573660 0.685180 -0.592261
O19   O     O_R   0.500010 0.426340 0.685180 -0.555489
O20   O     O_3   0.455508 0.655666 0.896793 -0.734565
Zn1   Zn    Zn3+2 0.500000 0.598370 0.499960 1.009171
Zn2   Zn    Zn3+2 0.500000 0.401630 0.499960 1.044383

loop_
_geom_bond_atom_site_label_1
_geom_bond_atom_site_label_2
_ccdc_geom_bond_type
C8    C13   S    
C21   O6    S    
C27   C29   A    
C28   O9    S    
C6    C9    A    
N2    Zn1   S    
H11   O7    S    
C12   O8    S    
C6    H18   S    
C2    C29   S    
C28   C29   A    
C25   O13   S    
C18   H12   S    
C5    C6    A    
H5    O20   S    
C23   C26   A    
C18   N4    S    
C20   C24   S    
C19   O3    S    
H13   O8    S    
H21   N3    S    
C18   C20   S    
C13   N2    T    
C14   N1    T    
C16   C24   S    
H10   O6    S    
C21   C22   S    
H4    N6    S    
H9    O5    S    
C5    H19   S    
H6    O2    S    
H7    O3    S    
C7    O14   A    
H8    O4    S    
H24   N5    S    
C12   O7    S    
C1    O12   A    
C23   O11   S    
H17   O13   S    
C7    O15   A    
C25   C26   A    
C12   C21   S    
C1    C3    S    
C20   O4    S    
C9    C14   S    
C5    C8    A    
H14   O9    S    
C23   C28   A    
N1    Zn2   S    
C9    C11   A    
H16   O11   S    
C27   O10   S    
H22   N4    S    
C26   C30   S    
H3    N6    S    
C17   H1    S    
O14   Zn1   S    
C11   N6    S    
C21   O5    S    
H15   O10   S    
C18   C22   S    
H20   N3    S    
C19   C24   S    
C1    O1    A    
O16   Zn1   S    
O19   Zn2   S    
H23   N4    S    
O15   Zn2   S    
C25   C27   A    
C7    C22   S    
C12   C24   S    
C17   C22   S    
C16   O19   A    
C4    C15   S    
C2    C3    T    
O1    Zn1   S    
O18   Zn1   S    
C15   O17   A    
O17   Zn2   S    
C17   C19   S    
C15   O16   A    
C16   O18   A    
C20   O2    S    
C19   O20   S    
O12   Zn2   S    
C10   C11   A    
C8    C10   A    
H2    N5    S    
C10   N5    S    
C4    C30   T    
C17   N3    S    
