data_mof_unit_13233.cif
_audit_creation_date              2012-10-26T21:04:55-0400
_audit_creation_method            fapswitch 2.2
_symmetry_space_group_name_H-M    P1
_symmetry_Int_Tables_number       1
_space_group_crystal_system       triclinic
_cell_length_a                    11.690339
_cell_length_b                    12.312008
_cell_length_c                    13.006938
_cell_angle_alpha                 116.364333
_cell_angle_beta                  79.072655
_cell_angle_gamma                 100.78415
_cell_volume                      1635.66260625

loop_
_atom_site_label
_atom_site_type_symbol
_atom_type_description
_atom_site_fract_x
_atom_site_fract_y
_atom_site_fract_z
_atom_type_partial_charge
Br1   Br    Br    0.237231 0.871418 0.719832 -0.364004
Br2   Br    Br    0.234809 0.364598 0.476881 -0.471035
Br3   Br    Br    0.684939 0.822664 0.667795 -0.417011
Br4   Br    Br    0.274080 0.492168 0.890845 -0.485685
C1    C     C_R   0.513598 0.854973 0.285177 0.569538
C2    C     C_R   0.588905 0.488207 0.152266 -0.133718
C3    C     C_R   0.600347 0.611294 0.173784 0.025805
C4    C     C_R   0.715677 0.999247 0.499929 0.577216
C5    C     C_R   0.475572 0.349788 0.872946 -0.073652
C6    C     C_R   0.513766 0.188742 0.915691 -0.075238
C7    C     C_R   0.512887 0.773432 0.159781 -0.017826
C8    C     C_R   0.714749 0.375881 0.374348 -0.002818
C9    C     C_R   0.320946 0.737996 0.609831 0.299977
C10   C     C_R   0.265653 0.621503 0.590904 -0.090608
C11   C     C_R   0.328098 0.521280 0.533048 0.123541
C12   C     C_R   0.487748 0.227176 0.837040 0.007982
C13   C     C_R   0.451865 0.541346 0.512823 -0.023475
C14   C     C_R   0.503615 0.663059 0.530863 0.133011
C15   C     C_R   0.527096 0.447984 0.475719 -0.012734
C16   C     C_R   0.486755 0.145029 0.714088 0.562409
C17   C     C_R   0.645905 0.472981 0.437013 -0.023570
C18   C     C_R   0.695465 0.595521 0.474852 -0.123731
C19   C     C_R   0.624980 0.689421 0.534057 0.162166
C20   C     C_R   0.494980 0.336808 0.487762 0.088073
C21   C     C_R   0.667721 0.258650 0.368031 0.118492
C22   C     C_R   0.284357 0.000537 0.499652 0.575871
C23   C     C_R   0.469180 0.810672 0.086862 -0.012368
C24   C     C_1   0.837217 0.998076 0.499731 0.051661
C25   C     C_1   0.939946 0.998723 0.499396 0.030435
C26   C     C_1   0.060161 0.000380 0.499104 0.038294
C27   C     C_1   0.162880 0.001309 0.499127 0.062378
C28   C     C_R   0.540175 0.275316 0.025052 -0.081637
C29   C     C_2   0.835076 0.395346 0.317344 0.273408
C30   C     C_2   0.464481 0.941921 0.120079 0.323446
C31   C     C_2   0.380299 0.753337 0.902838 0.329417
C32   C     C_2   0.696375 0.692419 0.241497 0.274831
C33   C     C_2   0.724215 0.149783 0.280810 0.223167
C34   C     C_R   0.419297 0.721134 0.987686 0.042293
C35   C     C_R   0.406198 0.598144 0.968580 0.085099
C36   C     C_R   0.475013 0.560265 0.023324 0.022559
C37   C     C_R   0.531442 0.649610 0.118880 0.016533
C38   C     C_R   0.489850 0.436046 0.985944 0.059541
C39   C     C_R   0.535288 0.399705 0.057620 0.037295
Cu1   Cu    Cu3+1 0.526510 0.098270 0.475420 0.990505
Cu2   Cu    Cu3+1 0.473490 0.901730 0.524580 1.079319
H1    H     H_    0.523821 0.093993 0.889389 0.202569
H2    H     H_    0.313702 0.694379 0.848593 0.159003
H3    H     H_    0.729925 0.668180 0.299657 0.133693
H4    H     H_    0.725251 0.070827 0.295416 0.192603
H5    H     H_    0.789544 0.618807 0.473513 0.188458
H6    H     H_    0.417211 0.324890 0.542996 0.187462
H7    H     H_    0.173019 0.608878 0.619819 0.177795
H8    H     H_    0.634900 0.460135 0.199817 0.141400
H9    H     H_    0.571444 0.246055 0.080976 0.157051
H10   H     H_    0.464253 0.379351 0.809149 0.169160
H11   H     H_    0.901709 0.340166 0.308700 0.171419
H12   H     H_    0.542497 0.006587 0.142374 0.146159
N1    N     N_R   0.566700 0.246290 0.438210 -0.271897
N2    N     N_R   0.434010 0.754320 0.561170 -0.217465
O1    O     O_R   0.533340 0.972510 0.318140 -0.536234
O2    O     O_2   0.372821 0.978814 0.124726 -0.431506
O3    O     O_2   0.426794 0.843408 0.887764 -0.440822
O4    O     O_2   0.744049 0.782861 0.227637 -0.500177
O5    O     O_2   0.768522 0.145424 0.186323 -0.502154
O6    O     O_R   0.488570 0.806530 0.359650 -0.500964
O7    O     O_R   0.685190 0.083000 0.479260 -0.533738
O8    O     O_R   0.640410 0.917020 0.520770 -0.465824
O9    O     O_R   0.511430 0.193470 0.640350 -0.516502
O10   O     O_R   0.466660 0.027490 0.681860 -0.437737
O11   O     O_R   0.359590 0.082980 0.479230 -0.478678
O12   O     O_R   0.314810 0.917000 0.520740 -0.472386
O13   O     O_2   0.859737 0.469958 0.276245 -0.495843

loop_
_geom_bond_atom_site_label_1
_geom_bond_atom_site_label_2
_ccdc_geom_bond_type
Cu2   O8    S    
C30   H12   S    
Cu1   O11   S    
C25   C26   S    
C5    H10   S    
Cu2   O12   S    
C32   O4    D    
C33   H4    S    
C3    C32   S    
C14   N2    A    
Cu1   O7    S    
C29   O13   D    
Br4   C35   S    
C7    C23   A    
C8    C21   A    
C12   C16   S    
C31   H2    S    
C33   O5    D    
C29   H11   S    
C36   C38   A    
C15   C20   A    
C22   C27   S    
C23   C30   S    
C6    C12   A    
C9    C10   A    
C4    O7    A    
Br2   C11   S    
C26   C27   T    
C24   C25   T    
C5    C38   A    
C2    C3    A    
C22   O12   A    
Cu1   O1    S    
C4    C24   S    
C28   H9    S    
C36   C37   A    
C13   C15   A    
C5    C12   A    
C13   C14   A    
C31   O3    D    
C18   C19   A    
C2    C39   A    
C3    C37   A    
C1    C7    S    
Cu2   O6    S    
C34   C35   A    
C22   O11   A    
C16   O10   A    
Cu1   O9    S    
C20   H6    S    
Br1   C9    S    
C38   C39   A    
C2    H8    S    
Cu2   O10   S    
C18   H5    S    
C32   H3    S    
C20   N1    A    
C6    C28   A    
C6    H1    S    
C31   C34   S    
Cu1   Cu2   S    
C4    O8    A    
C1    O6    A    
C21   N1    A    
C7    C37   A    
C35   C36   A    
C11   C13   A    
C28   C39   A    
C10   C11   A    
Cu2   N2    S    
C23   C34   A    
C1    O1    A    
C21   C33   S    
C8    C29   S    
C17   C18   A    
Br3   C19   S    
C8    C17   A    
C16   O9    A    
C30   O2    D    
C10   H7    S    
C14   C19   A    
Cu1   N1    S    
C15   C17   A    
C9    N2    A    
