data_mof_unit_17132.cif
_audit_creation_date              2013-03-05T15:55:04-0500
_audit_creation_method            fapswitch 2.2
_symmetry_space_group_name_H-M    P1
_symmetry_Int_Tables_number       1
_space_group_crystal_system       triclinic
_cell_length_a                    14.769675
_cell_length_b                    14.880756
_cell_length_c                    14.878707
_cell_angle_alpha                 109.50698
_cell_angle_beta                  109.880758
_cell_angle_gamma                 109.075061
_cell_volume                      2515.7035833

loop_
_atom_site_label
_atom_site_type_symbol
_atom_site_description
_atom_site_fract_x
_atom_site_fract_y
_atom_site_fract_z
_atom_type_partial_charge
C1    C     C_R   0.184920 0.278163 0.253750 -0.131989
H1    H     H_    0.123652 0.302306 0.251307 0.131256
N1    N     N_R   0.291070 0.347930 0.293870 -0.044312
C2    C     C_R   0.525403 0.432491 0.746573 -0.144360
H2    H     H_    0.552708 0.374262 0.749309 0.111080
N2    N     N_R   0.554050 0.497220 0.706150 -0.041169
C3    C     C_R   0.505706 0.201232 0.408291 -0.150911
H3    H     H_    0.486810 0.154278 0.324826 0.105363
N3    N     N_R   0.497240 0.291100 0.443210 -0.036923
C4    C     C_R   0.291663 0.598776 0.589762 -0.135376
H4    H     H_    0.326038 0.660415 0.674031 0.086430
N4    N     N_R   0.347890 0.554050 0.556810 -0.039585
C5    C     C_R   0.596133 0.290518 0.591129 -0.138764
H5    H     H_    0.657645 0.322705 0.675446 0.084333
N5    N     N_R   0.554050 0.347900 0.556830 -0.038001
C6    C     C_R   0.199043 0.504596 0.407360 -0.081316
H6    H     H_    0.145648 0.474852 0.321617 0.115055
N6    N     N_R   0.291070 0.497250 0.443190 -0.046469
C7    C     C_R   0.435342 0.527363 0.751072 -0.114373
H7    H     H_    0.381861 0.559664 0.762121 0.094515
N7    N     N_R   0.497240 0.554030 0.706140 -0.040495
C8    C     C_R   0.276265 0.184877 0.249867 -0.125932
H8    H     H_    0.298362 0.121299 0.239571 0.090787
N8    N     N_R   0.347890 0.291110 0.293870 -0.039031
C9    C     C_R   0.172301 0.174291 0.225076 0.059141
C10   C     C_R   0.451165 0.449773 0.776654 0.072329
C11   C     C_R   0.566787 0.197585 0.499077 0.081685
C12   C     C_R   0.198527 0.571996 0.497405 0.071193
C13   C     C_R   0.474840 0.721302 0.407184 -0.150824
H9    H     H_    0.447837 0.697009 0.321868 0.112944
N9    N     N_R   0.445950 0.652100 0.443170 -0.042739
C14   C     C_R   0.815819 0.566770 0.593363 -0.131156
H10   H     H_    0.878679 0.617059 0.679308 0.117252
N10   N     N_R   0.708930 0.502750 0.556810 -0.043811
C15   C     C_R   0.494502 0.402516 0.195696 -0.166922
H11   H     H_    0.513642 0.337970 0.167753 0.109367
N11   N     N_R   0.502760 0.445970 0.293860 -0.039435
C16   C     C_R   0.707505 0.798897 0.804530 -0.159710
H12   H     H_    0.670033 0.845102 0.832161 0.112870
N12   N     N_R   0.652110 0.708890 0.706130 -0.040047
C17   C     C_R   0.801575 0.709656 0.805203 -0.121712
H13   H     H_    0.853771 0.677235 0.834014 0.088659
N13   N     N_R   0.708930 0.652070 0.706130 -0.041578
C18   C     C_R   0.403919 0.495201 0.194622 -0.141229
H14   H     H_    0.342403 0.518350 0.165543 0.086969
N14   N     N_R   0.445950 0.502780 0.293850 -0.038517
C19   C     C_R   0.564430 0.815342 0.591659 -0.128122
H15   H     H_    0.617588 0.879552 0.677115 0.096441
N15   N     N_R   0.502760 0.708900 0.556790 -0.041525
C20   C     C_R   0.723728 0.477359 0.409137 -0.097426
H16   H     H_    0.701569 0.446963 0.323740 0.098565
N16   N     N_R   0.652110 0.445950 0.443190 -0.042463
Ni1   Ni    Ni4+2 0.369690 0.500010 0.369700 0.212989
Ni2   Ni    Ni4+2 0.630310 0.499990 0.630300 0.210516
Ni3   Ni    Ni4+2 0.500000 0.369720 0.369720 0.215769
Ni4   Ni    Ni4+2 0.500000 0.630280 0.630280 0.210269
C21   C     C_R   0.549016 0.825296 0.498487 0.072832
C22   C     C_R   0.827794 0.556503 0.502237 0.055729
C23   C     C_R   0.433497 0.432397 0.131150 0.082987
C24   C     C_R   0.802526 0.802467 0.869404 0.079087
H17   H     H_    0.026791 0.513840 0.020234 0.102849
C25   C     C_R   0.117311 0.616413 0.197109 -0.112660
H18   H     H_    0.187499 0.671953 0.198759 0.105942
C26   C     C_R   0.117256 0.634089 0.295520 -0.165498
H19   H     H_    0.188163 0.704008 0.372959 0.119054
C27   C     C_R   0.026355 0.561365 0.293819 0.074328
C28   C     C_R   0.934510 0.472980 0.191385 -0.090744
H20   H     H_    0.862488 0.417172 0.187195 0.163761
C29   C     C_R   0.935025 0.455766 0.093340 -0.107405
H21   H     H_    0.864265 0.387135 0.015057 0.120614
C30   C     C_R   0.026511 0.527214 0.096228 -0.117570
C31   C     C_R   0.930763 0.574480 0.402209 -0.206217
H22   H     H_    0.855230 0.540986 0.326560 0.110542
C32   C     C_R   0.932160 0.608286 0.502721 0.051091
C33   C     C_R   0.035869 0.676660 0.601482 0.031478
C34   C     C_R   0.127931 0.672827 0.598119 -0.231498
H23   H     H_    0.205557 0.715759 0.674582 0.119353
C35   C     C_R   0.119083 0.612486 0.496998 0.056260
C36   C     C_R   0.025843 0.581087 0.398427 0.063156
C37   C     C_R   0.001698 0.824100 0.698952 -0.140270
H24   H     H_    0.948795 0.812599 0.620019 0.116795
C38   C     C_R   0.021401 0.906352 0.795419 -0.097840
H25   H     H_    0.983167 0.956758 0.790532 0.110722
C39   C     C_R   0.091581 0.924610 0.898224 -0.088151
H26   H     H_    0.108330 0.989782 0.972725 0.118581
C40   C     C_R   0.140187 0.858989 0.904810 -0.122673
H27   H     H_    0.193654 0.872642 0.984659 0.108170
C41   C     C_R   0.120686 0.776444 0.808505 -0.171259
H28   H     H_    0.159192 0.726521 0.815245 0.108899
C42   C     C_R   0.051814 0.758739 0.704455 0.108616
C43   C     C_R   0.450819 0.345613 0.876942 0.166623
C44   C     C_R   0.406103 0.400850 0.832646 0.035331
C45   C     C_R   0.332188 0.425336 0.861410 -0.191412
H29   H     H_    0.288960 0.460535 0.823561 0.129701
C46   C     C_R   0.328155 0.421817 0.952910 -0.205614
H30   H     H_    0.282052 0.454562 0.982288 0.125112
C47   C     C_R   0.397420 0.392946 0.014438 0.032584
C48   C     C_R   0.446035 0.341316 0.966422 0.157371
C49   C     C_3   0.558917 0.353013 0.016260 -0.506327
C50   C     C_3   0.564682 0.358381 0.918982 -0.524384
H31   H     H_    0.621128 0.431332 0.095469 0.197849
H32   H     H_    0.555835 0.277774 0.017428 0.203948
H33   H     H_    0.630180 0.440015 0.943781 0.201773
H34   H     H_    0.565608 0.286540 0.864650 0.195727
C51   C     C_R   0.551835 0.927017 0.395633 0.176033
C52   C     C_R   0.594922 0.926527 0.495107 0.027160
C53   C     C_R   0.667728 0.028577 0.593485 -0.199588
H35   H     H_    0.710035 0.033470 0.671734 0.127200
C54   C     C_R   0.671594 0.124086 0.594090 -0.195061
H36   H     H_    0.716584 0.198891 0.672814 0.124716
C55   C     C_R   0.603430 0.117082 0.496061 0.030745
C56   C     C_R   0.556483 0.021303 0.396174 0.185592
C57   C     C_3   0.444405 0.958712 0.294645 -0.533068
C58   C     C_3   0.438738 0.855861 0.294484 -0.535821
H37   H     H_    0.381287 0.975325 0.309821 0.198504
H38   H     H_    0.448764 0.963448 0.223095 0.196325
H39   H     H_    0.373225 0.815740 0.310936 0.195516
H40   H     H_    0.438601 0.800754 0.222255 0.195774
C59   C     C_R   0.965052 0.067779 0.132736 0.101495
C60   C     C_R   0.068059 0.071976 0.172416 0.015984
C61   C     C_R   0.066854 0.970822 0.140314 -0.189969
H41   H     H_    0.141933 0.967265 0.175593 0.124952
C62   C     C_R   0.972423 0.875075 0.047075 -0.199495
H42   H     H_    0.978954 0.802191 0.014685 0.129218
C63   C     C_R   0.879357 0.880860 0.987482 0.057472
C64   C     C_R   0.872362 0.973439 0.040798 0.091950
C65   C     C_3   0.825597 0.035553 0.998906 -0.637596
C66   C     C_3   0.926019 0.139626 0.100413 0.208351
H43   H     H_    0.824870 0.027622 0.921588 0.177049
H44   H     H_    0.745574 0.019265 0.996617 0.230910
H45   H     H_    0.977504 0.192512 0.079195 0.040594
N17   N     N_R   0.896407 0.197717 0.176270 0.251785
O1    O     O_R   0.819947 0.222481 0.140201 -0.434839
O2    O     O_R   0.951465 0.232319 0.281338 -0.408785

loop_
_geom_bond_atom_site_label_1
_geom_bond_atom_site_label_2
_geom_bond_distance
_ccdc_geom_bond_type
C6    C12   1.384010 A    
C9    C60   1.467353 S    
C45   H29   1.081730 S    
C53   C54   1.400472 A    
C17   H13   1.080404 S    
C46   H30   1.081310 S    
C14   C22   1.391165 A    
C47   C48   1.399678 A    
C62   H42   1.081101 S    
C19   N15   1.339582 A    
C60   C61   1.410950 A    
N8    Ni3   1.834530 S    
C27   C36   1.487635 S    
C25   H18   1.080482 S    
C24   C63   1.464648 S    
C15   N11   1.327696 A    
N2    Ni2   1.846403 S    
C31   C36   1.397165 A    
C54   C55   1.408181 A    
C16   H12   1.078314 S    
C40   C41   1.399121 A    
C62   C63   1.407970 A    
C52   C53   1.408053 A    
C18   C23   1.383526 A    
C10   C44   1.460282 S    
C48   C49   1.497691 S    
C50   H34   1.111962 S    
C3    C11   1.376068 A    
C15   C23   1.374911 A    
C1    H1    1.071502 S    
C29   C30   1.396072 A    
C7    C10   1.393542 A    
C25   C26   1.398886 A    
N6    Ni1   1.846083 S    
N12   N13   1.372218 A    
C15   H11   1.079833 S    
N17   O1    1.300381 A    
N12   Ni4   1.834529 S    
C8    C9    1.391594 A    
C19   H15   1.079544 S    
C20   N16   1.339235 A    
C53   H35   1.081708 S    
N3    Ni3   1.849179 S    
C43   C50   1.500632 S    
C12   C35   1.483075 S    
C33   C42   1.487097 S    
N16   Ni3   1.834355 S    
C57   H38   1.111829 S    
C59   C66   1.504800 S    
H17   C30   1.082373 S    
C27   C28   1.407783 A    
C11   C55   1.460942 S    
C45   C46   1.400152 A    
C5    H5    1.080633 S    
C1    C9    1.386773 A    
C17   N13   1.340792 A    
N1    N8    1.372219 A    
N9    N15   1.376138 A    
C66   N17   1.464126 S    
C56   C57   1.497181 S    
C18   N14   1.340703 A    
C32   C33   1.411649 A    
C13   C21   1.384252 A    
C28   H20   1.080757 S    
C20   C22   1.395534 A    
N5    Ni2   1.852006 S    
C51   C58   1.498759 S    
C3    H3    1.079638 S    
C34   H23   1.079657 S    
C31   C32   1.399922 A    
C43   C44   1.402404 A    
C40   H27   1.082684 S    
C31   H22   1.080626 S    
N2    N7    1.371977 A    
C50   H33   1.112405 S    
N9    Ni1   1.852006 S    
C28   C29   1.397494 A    
C26   C27   1.408273 A    
C33   C34   1.396315 A    
C65   H43   1.112456 S    
C13   H9    1.075203 S    
C19   C21   1.392860 A    
N13   Ni2   1.851735 S    
C49   C50   1.505032 S    
C20   H16   1.078295 S    
C6    N6    1.336717 A    
N4    Ni4   1.834355 S    
C39   H26   1.081299 S    
C61   H41   1.081209 S    
C58   H40   1.111888 S    
C4    N4    1.339121 A    
C16   C24   1.378334 A    
C2    N2    1.327452 A    
C49   H31   1.112537 S    
C51   C56   1.379293 A    
C41   C42   1.407910 A    
N10   Ni2   1.846085 S    
C38   C39   1.395706 A    
C5    N5    1.340920 A    
C63   C64   1.398850 A    
C23   C47   1.459261 S    
C8    N8    1.338455 A    
C65   C66   1.514051 S    
C66   H45   1.111439 S    
C18   H14   1.080795 S    
C22   C32   1.477259 S    
C57   C58   1.504376 S    
C4    C12   1.389149 A    
C3    N3    1.327937 A    
C55   C56   1.399812 A    
C7    N7    1.340118 A    
C35   C36   1.419111 A    
C5    C11   1.384085 A    
C17   C24   1.384634 A    
C34   C35   1.405118 A    
C37   H24   1.083195 S    
N7    Ni4   1.849171 S    
C2    C10   1.381991 A    
C59   C60   1.403362 A    
C46   C47   1.407904 A    
N15   Ni4   1.849178 S    
C51   C52   1.401873 A    
N10   N16   1.376137 A    
C14   H10   1.075419 S    
C7    H7    1.079683 S    
N3    N5    1.376137 A    
C65   H44   1.112068 S    
C13   N9    1.328760 A    
C54   H36   1.081230 S    
C26   H19   1.083226 S    
C16   N12   1.329012 A    
N1    Ni1   1.851735 S    
C6    H6    1.075102 S    
C64   C65   1.493024 S    
N14   Ni1   1.846403 S    
C44   C45   1.407620 A    
C37   C38   1.397403 A    
C25   C30   1.396502 A    
C21   C52   1.462073 S    
C43   C48   1.378218 A    
C37   C42   1.408231 A    
C29   H21   1.082557 S    
C61   C62   1.401769 A    
C58   H39   1.110716 S    
C4    H4    1.079699 S    
N11   Ni3   1.849170 S    
C59   C64   1.379796 A    
C2    H2    1.075134 S    
C49   H32   1.111812 S    
C41   H28   1.082839 S    
N17   O2    1.301680 A    
C38   H25   1.082649 S    
N4    N6    1.376137 A    
C8    H8    1.078921 S    
C39   C40   1.397407 A    
C1    N1    1.333379 A    
N11   N14   1.371975 A    
C14   N10   1.335176 A    
C57   H37   1.112508 S    
