data_mof_unit_56763.cif
_audit_creation_date              2012-12-10T18:19:14-0500
_audit_creation_method            fapswitch 2.2
_symmetry_space_group_name_H-M    P1
_symmetry_Int_Tables_number       1
_space_group_crystal_system       triclinic
_cell_length_a                    14.98602
_cell_length_b                    14.176776
_cell_length_c                    11.520749
_cell_angle_alpha                 89.845865
_cell_angle_beta                  87.846427
_cell_angle_gamma                 90.193181
_cell_volume                      2445.87046604

loop_
_atom_site_label
_atom_site_type_symbol
_atom_type_description
_atom_site_fract_x
_atom_site_fract_y
_atom_site_fract_z
_atom_type_partial_charge
C1    C     C_R   0.327300 0.499502 0.501238 0.918635
C2    C     C_R   0.448550 0.201393 0.581098 0.038746
C3    C     C_R   0.437192 0.797973 0.566187 0.039706
C4    C     C_R   0.551636 0.202017 0.419183 0.038971
C5    C     C_R   0.438693 0.898818 0.573151 -0.107673
C6    C     C_R   0.559238 0.101709 0.424935 -0.097418
C7    C     C_R   0.561896 0.899567 0.427892 -0.106464
C8    C     C_R   0.441264 0.100998 0.575876 -0.097223
C9    C     C_R   0.500355 0.949651 0.500602 -0.069444
C10   C     C_R   0.500316 0.050699 0.500517 -0.075273
C11   C     C_R   0.380558 0.950474 0.649849 0.362300
C12   C     C_R   0.672717 0.499852 0.498153 0.916120
C13   C     C_R   0.624027 0.051145 0.357987 0.373509
C14   C     C_R   0.620166 0.951940 0.351434 0.360315
C15   C     C_R   0.376597 0.049653 0.642999 0.371415
C16   C     C_R   0.502332 0.500175 0.282021 0.947623
C17   C     C_R   0.497478 0.499946 0.717974 0.948390
C18   C     C_1   0.502071 0.500542 0.161483 -0.103547
C19   C     C_1   0.497377 0.499987 0.838534 -0.099895
C20   C     C_1   0.500679 0.500593 0.059303 0.035516
C21   C     C_1   0.498569 0.500306 0.940726 0.038609
C22   C     C_R   0.817679 0.515011 0.394106 -0.057353
C23   C     C_R   0.910208 0.496504 0.391251 0.052363
C24   C     C_R   0.182515 0.513600 0.605329 -0.055330
C25   C     C_R   0.768370 0.498171 0.498195 -0.171463
C26   C     C_R   0.231689 0.496871 0.501331 -0.171818
C27   C     C_R   0.810216 0.474042 0.600942 -0.083138
C28   C     C_R   0.189558 0.471801 0.399094 -0.084135
C29   C     C_R   0.902852 0.485838 0.604798 -0.074902
C30   C     C_R   0.097201 0.485075 0.394783 -0.075735
C31   C     C_R   0.953337 0.491242 0.498824 -0.026713
C32   C     C_R   0.046713 0.490804 0.500603 -0.026722
C33   C     C_2   0.772379 0.557244 0.293343 0.535170
C34   C     C_R   0.089921 0.495123 0.608137 0.053631
C35   C     C_2   0.227985 0.555319 0.706217 0.534353
C36   C     C_2   0.759233 0.431405 0.701469 0.475915
C37   C     C_2   0.239302 0.425895 0.300253 0.468278
C38   C     C_3   0.861508 0.592531 0.825933 0.117887
C39   C     C_3   0.922125 0.656416 0.894730 -0.399753
C40   C     C_3   0.885229 0.756282 0.904002 -0.882118
C41   C     C_3   0.144518 0.588482 0.172412 0.113292
C42   C     C_3   0.091421 0.653034 0.094852 -0.392596
C43   C     C_3   0.137821 0.748048 0.076153 -0.877144
C44   C     C_2   0.078008 0.454139 0.824381 0.493540
C45   C     C_R   0.946031 0.490893 0.711950 0.344180
C46   C     C_2   0.921729 0.458020 0.174528 0.500730
C47   C     C_2   0.634435 0.744281 0.375032 0.604993
C48   C     C_2   0.406392 0.254286 0.678533 0.576243
C49   C     C_2   0.365071 0.743115 0.624193 0.603389
C50   C     C_2   0.593704 0.255386 0.321469 0.580122
C51   C     C_3   0.348260 0.921782 0.844579 0.155921
C52   C     C_3   0.376626 0.829197 0.900670 -0.409872
C53   C     C_3   0.389318 0.840800 0.030770 -0.940927
C54   C     C_3   0.772182 0.094476 0.359412 0.127425
C55   C     C_3   0.794778 0.193127 0.404102 -0.380447
C56   C     C_R   0.054317 0.491145 0.287473 0.344247
C57   C     C_3   0.885708 0.195577 0.459283 -0.928083
C58   C     C_3   0.651908 0.926589 0.156426 0.147575
C59   C     C_3   0.649862 0.834682 0.087399 -0.381733
C60   C     C_3   0.642419 0.853284 0.957494 -0.950543
C61   C     C_3   0.228411 0.091815 0.641548 0.130874
C62   C     C_3   0.204642 0.190906 0.599363 -0.379975
C63   C     C_3   0.113491 0.192836 0.544761 -0.928217
C64   C     C_R   0.038824 0.484352 0.713500 -0.084548
C65   C     C_R   0.961333 0.486241 0.285806 -0.082105
C66   C     C_R   0.562930 0.798641 0.434049 0.042325
H1    H     H_    0.703942 0.538502 0.275958 -0.006505
H2    H     H_    0.929642 0.800143 0.957016 0.270757
H3    H     H_    0.817658 0.754961 0.946541 0.272597
H4    H     H_    0.211821 0.578021 0.130749 0.202632
H5    H     H_    0.154996 0.624299 0.257023 0.151629
H6    H     H_    0.084955 0.618479 0.009359 0.237584
H7    H     H_    0.023972 0.664655 0.135535 0.235590
H8    H     H_    0.144791 0.784788 0.160382 0.261102
H9    H     H_    0.097786 0.792885 0.018687 0.272251
H10   H     H_    0.204899 0.737747 0.034136 0.274723
H11   H     H_    0.046328 0.473540 0.906977 0.102715
H12   H     H_    0.296347 0.536646 0.723540 -0.007200
H13   H     H_    0.952891 0.479658 0.092245 0.100976
H14   H     H_    0.619407 0.695567 0.306403 0.026255
H15   H     H_    0.363398 0.313577 0.662886 0.054345
H16   H     H_    0.379548 0.693196 0.691920 0.026622
H17   H     H_    0.636803 0.314895 0.336771 0.053231
H18   H     H_    0.288749 0.949743 0.893415 0.190329
H19   H     H_    0.403113 0.974658 0.853081 0.142399
H20   H     H_    0.324940 0.774279 0.887435 0.254520
H21   H     H_    0.440353 0.805075 0.858283 0.209423
H22   H     H_    0.439557 0.896493 0.046838 0.267458
H23   H     H_    0.787497 0.372495 0.747750 0.107639
H24   H     H_    0.412730 0.773254 0.067801 0.270576
H25   H     H_    0.325172 0.860322 0.075647 0.270591
H26   H     H_    0.826697 0.071215 0.298123 0.185631
H27   H     H_    0.770547 0.043369 0.433561 0.134452
H28   H     H_    0.795377 0.244311 0.330812 0.265419
H29   H     H_    0.743020 0.215186 0.469998 0.204848
H30   H     H_    0.886687 0.145946 0.533983 0.264646
H31   H     H_    0.899323 0.267947 0.491041 0.269616
H32   H     H_    0.939151 0.176115 0.394415 0.273377
H33   H     H_    0.703200 0.974567 0.116261 0.202097
H34   H     H_    0.208211 0.368557 0.254163 0.110210
H35   H     H_    0.585317 0.961225 0.150208 0.125021
H36   H     H_    0.711701 0.793961 0.101841 0.263719
H37   H     H_    0.591845 0.791406 0.118875 0.207529
H38   H     H_    0.582288 0.895961 0.940739 0.272313
H39   H     H_    0.637247 0.785146 0.910845 0.272195
H40   H     H_    0.702517 0.891624 0.922932 0.272251
H41   H     H_    0.174208 0.066184 0.702226 0.185903
H42   H     H_    0.230643 0.042390 0.566020 0.133093
H43   H     H_    0.203820 0.240625 0.673834 0.267560
H44   H     H_    0.255932 0.215156 0.533699 0.204469
H45   H     H_    0.796003 0.586758 0.873951 0.200354
H46   H     H_    0.112763 0.144700 0.468893 0.264413
H47   H     H_    0.099036 0.265580 0.514842 0.270240
H48   H     H_    0.060464 0.171125 0.609414 0.273221
H49   H     H_    0.847940 0.626140 0.740692 0.155206
H50   H     H_    0.926961 0.626717 0.983343 0.231345
H51   H     H_    0.989665 0.659162 0.851638 0.243970
H52   H     H_    0.881511 0.788610 0.816391 0.266580
N1    N     N_R   0.500000 0.750030 0.500000 -0.192940
N2    N     N_R   0.500000 0.249970 0.500000 -0.195369
O1    O     O_R   0.367850 0.580280 0.500030 -0.616472
O2    O     O_2   0.190320 0.613729 0.768316 -0.585168
O3    O     O_2   0.688298 0.464164 0.736793 -0.593820
O4    O     O_2   0.312639 0.453868 0.266198 -0.591467
O5    O     O_3   0.898265 0.500508 0.816920 -0.678616
O6    O     O_3   0.102437 0.498719 0.182348 -0.679935
O7    O     O_2   0.142951 0.402336 0.824467 -0.594074
O8    O     O_2   0.856937 0.405581 0.173670 -0.594176
O9    O     O_2   0.711568 0.753590 0.403819 -0.529910
O10   O     O_2   0.420809 0.232374 0.778671 -0.530875
O11   O     O_2   0.288078 0.753142 0.595347 -0.528836
O12   O     O_R   0.632150 0.419720 0.499970 -0.651080
O13   O     O_2   0.579147 0.233553 0.221456 -0.530405
O14   O     O_3   0.323369 0.904539 0.728884 -0.620358
O15   O     O_3   0.692396 0.097862 0.297015 -0.628473
O16   O     O_3   0.676336 0.906399 0.271573 -0.623038
O17   O     O_3   0.308183 0.095537 0.703989 -0.624625
O18   O     O_R   0.632150 0.580280 0.499970 -0.611795
O19   O     O_R   0.367850 0.419720 0.500030 -0.646054
O20   O     O_R   0.500010 0.580270 0.334450 -0.659690
O21   O     O_R   0.499990 0.419730 0.665550 -0.605087
O22   O     O_R   0.499990 0.580270 0.665550 -0.656659
O23   O     O_R   0.500010 0.419730 0.334450 -0.600544
O24   O     O_2   0.810229 0.616274 0.231548 -0.584323
Zn1   Zn    Zn3+2 0.500000 0.607200 0.500000 0.946466
Zn2   Zn    Zn3+2 0.500000 0.392800 0.500000 0.955407

loop_
_geom_bond_atom_site_label_1
_geom_bond_atom_site_label_2
_ccdc_geom_bond_type
C36   H23   S    
O23   Zn2   S    
C40   H52   S    
O19   Zn2   S    
N2    Zn2   S    
C27   C29   A    
C41   C42   S    
C51   H19   S    
C3    C49   S    
C44   O7    D    
C44   C64   S    
C5    C9    A    
C49   O11   D    
C47   O9    D    
C46   O8    D    
C44   H11   S    
C19   C21   T    
C45   C64   A    
C24   C26   A    
C5    C11   A    
C38   C39   S    
C51   O14   S    
C57   H32   S    
O18   Zn1   S    
C56   C65   A    
C48   H15   S    
C17   O21   A    
C63   H46   S    
C61   H42   S    
C54   H27   S    
C63   H48   S    
C11   C15   A    
C7    C14   A    
C45   O5    S    
C22   C25   A    
C53   H25   S    
C56   O6    S    
C9    C10   A    
C47   C66   S    
C18   C20   T    
C1    O19   A    
C41   H5    S    
C43   H8    S    
C59   C60   S    
C13   C14   A    
C13   O15   S    
O22   Zn1   S    
C48   O10   D    
C16   O20   A    
C47   H14   S    
C55   H28   S    
C34   C64   A    
C50   H17   S    
C52   H21   S    
C33   O24   D    
C43   H9    S    
O12   Zn2   S    
C24   C35   S    
C40   H3    S    
C51   C52   S    
C16   O23   A    
C46   C65   S    
C4    C6    A    
C11   O14   S    
C39   C40   S    
C2    N2    A    
C58   O16   S    
C58   C59   S    
C39   H51   S    
C30   C56   A    
C57   H30   S    
C24   C34   A    
C4    C50   S    
C17   O22   A    
C32   C34   A    
C49   H16   S    
C54   H26   S    
C62   C63   S    
C37   O4    D    
C31   C32   A    
C62   H44   S    
C57   H31   S    
C36   O3    D    
C42   H6    S    
C58   H35   S    
C3    N1    A    
O21   Zn2   S    
C55   H29   S    
C8    C15   A    
C66   N1    A    
C55   C57   S    
C1    C26   S    
C12   O18   A    
N1    Zn1   S    
C42   C43   S    
C38   O5    S    
C60   H40   S    
C52   C53   S    
C33   H1    S    
C43   H10   S    
C7    C9    A    
C22   C33   S    
C54   C55   S    
C42   H7    S    
C12   O12   A    
C59   H36   S    
C41   O6    S    
C35   O2    D    
C2    C8    A    
C58   H33   S    
C3    C5    A    
C50   O13   D    
O20   Zn1   S    
C6    C10   A    
C27   C36   S    
C25   C27   A    
C35   H12   S    
C26   C28   A    
C12   C25   S    
C2    C48   S    
C16   C18   S    
C23   C65   A    
C52   H20   S    
C59   H37   S    
C29   C31   A    
C6    C13   A    
C30   C32   A    
C38   H49   S    
C61   O17   S    
C46   H13   S    
C62   H43   S    
C14   O16   S    
C28   C37   S    
C54   O15   S    
C28   C30   A    
C17   C19   S    
C53   H22   S    
O1    Zn1   S    
C61   C62   S    
C61   H41   S    
C1    O1    A    
C63   H47   S    
C20   C21   S    
C8    C10   A    
C39   H50   S    
C40   H2    S    
C29   C45   A    
C53   H24   S    
C22   C23   A    
C4    N2    A    
C15   O17   S    
C38   H45   S    
C60   H38   S    
C51   H18   S    
C37   H34   S    
C60   H39   S    
C23   C31   A    
C41   H4    S    
C7    C66   A    
