data_mof_unit_18755.cif
_audit_creation_date              2012-12-11T16:07:33-0500
_audit_creation_method            fapswitch 2.2
_symmetry_space_group_name_H-M    P1
_symmetry_Int_Tables_number       1
_space_group_crystal_system       triclinic
_cell_length_a                    6.984661
_cell_length_b                    14.611719
_cell_length_c                    15.838256
_cell_angle_alpha                 90.470222
_cell_angle_beta                  89.714432
_cell_angle_gamma                 90.376406
_cell_volume                      1616.31024646

loop_
_atom_site_label
_atom_site_type_symbol
_atom_type_description
_atom_site_fract_x
_atom_site_fract_y
_atom_site_fract_z
_atom_type_partial_charge
O1    O     O_R   0.494320 0.415010 0.412140 -0.541672
O2    O     O_R   0.824010 0.404260 0.587250 -0.506043
O3    O     O_R   0.994320 0.584990 0.587860 -0.532867
C1    C     C_R   0.655959 0.384367 0.618752 0.685807
O4    O     O_R   0.824040 0.403870 0.412760 -0.541876
O5    O     O_R   0.994350 0.584590 0.412130 -0.538929
C2    C     C_R   0.656114 0.389009 0.378587 0.666173
O6    O     O_R   0.494300 0.415410 0.587870 -0.531525
O7    O     O_3   0.660800 0.559290 0.500000 -0.349116
V1    V     V_3+5 0.935650 0.489000 0.500000 1.529555
O8    O     O_R   0.324060 0.595740 0.412750 -0.537581
C3    C     C_R   0.155296 0.617935 0.383808 0.645930
O9    O     O_R   0.324040 0.596130 0.587240 -0.538967
C4    C     C_R   0.155418 0.618109 0.616403 0.693646
V2    V     V_3+5 0.435660 0.511000 0.500000 1.495588
O10   O     O_3   0.160640 0.440710 0.500000 -0.341626
C5    C     C_3   0.012277 0.680605 0.765177 -0.200043
C6    C     C_3   0.180344 0.710459 0.823436 -0.147816
H1    H     H_    0.219217 0.678003 0.884073 0.104937
H2    H     H_    0.912745 0.622765 0.777930 0.122377
C7    C     C_3   0.123308 0.811451 0.811907 -0.068721
C8    C     C_3   0.955115 0.782670 0.754710 -0.121052
C9    C     C_3   0.089770 0.789076 0.677457 0.139988
C10   C     C_3   0.257239 0.819986 0.734451 -0.128800
C11   C     C_3   0.311494 0.718345 0.744999 0.190291
C12   C     C_3   0.145833 0.688168 0.687243 -0.031393
H3    H     H_    0.811740 0.814547 0.758009 0.123271
H4    H     H_    0.358306 0.877211 0.721484 0.113016
C13   C     C_3   0.264569 0.841225 0.256796 -0.163116
H5    H     H_    0.409432 0.840454 0.227220 0.122571
C14   C     C_3   0.274205 0.771467 0.330662 -0.342797
H6    H     H_    0.237855 0.801515 0.393092 0.197889
H7    H     H_    0.424187 0.747599 0.336341 0.178588
H8    H     H_    0.346672 0.726246 0.126959 0.136609
H9    H     H_    0.356913 0.620212 0.232556 0.149679
C15   C     C_3   0.200779 0.715797 0.153414 -0.334650
C16   C     C_3   0.913821 0.786379 0.224354 0.004479
C17   C     C_3   0.118730 0.808436 0.185550 -0.004661
H10   H     H_    0.846816 0.851481 0.243792 0.158038
C18   C     C_3   0.142532 0.688443 0.313139 -0.015848
C19   C     C_3   0.207794 0.645361 0.227034 -0.350223
C20   C     C_3   0.931802 0.722882 0.302638 -0.108859
H11   H     H_    0.843678 0.659895 0.291880 0.119460
H12   H     H_    0.116724 0.687788 0.099751 0.140960
H13   H     H_    0.114788 0.585591 0.211339 0.135797
C21   C     C_3   0.474426 0.246384 0.678146 -0.141041
H14   H     H_    0.344870 0.288391 0.677471 0.181650
C22   C     C_3   0.451613 0.178425 0.752653 -0.387110
H15   H     H_    0.436599 0.106422 0.729772 0.137955
H16   H     H_    0.317832 0.193405 0.788009 0.187317
H17   H     H_    0.496779 0.291455 0.894537 0.141230
C23   C     C_3   0.624026 0.360610 0.782036 0.019354
C24   C     C_3   0.840937 0.257155 0.698587 -0.114887
C25   C     C_3   0.648451 0.314147 0.691614 -0.052298
H18   H     H_    0.887671 0.232471 0.635288 0.180912
C26   C     C_3   0.624448 0.186491 0.812576 0.062465
C27   C     C_3   0.623234 0.284756 0.851964 -0.286370
C28   C     C_3   0.805934 0.172350 0.756191 -0.354868
H19   H     H_    0.786085 0.110297 0.715954 0.166212
H20   H     H_    0.934179 0.156064 0.794253 0.173905
H21   H     H_    0.748157 0.406705 0.793723 0.144655
H22   H     H_    0.749850 0.293784 0.893458 0.151951
C29   C     C_3   0.447352 0.325641 0.256761 0.046543
H23   H     H_    0.332360 0.303686 0.301102 0.157339
C30   C     C_3   0.446098 0.257956 0.179861 -0.348036
H24   H     H_    0.449987 0.295034 0.118688 0.151644
H25   H     H_    0.309241 0.218518 0.180933 0.171353
H26   H     H_    0.552152 0.215699 0.393490 0.098536
H27   H     H_    0.462918 0.129520 0.286544 0.149604
C31   C     C_3   0.663506 0.222108 0.343413 -0.249714
C32   C     C_3   0.806073 0.334431 0.238900 -0.334801
C33   C     C_3   0.644567 0.320451 0.305789 0.022412
H28   H     H_    0.949236 0.339778 0.268546 0.169144
H29   H     H_    0.788305 0.400579 0.206097 0.129459
C34   C     C_3   0.620515 0.192628 0.183650 0.001223
C35   C     C_3   0.614203 0.149213 0.274114 -0.206483
C36   C     C_3   0.802849 0.254595 0.173280 -0.282475
H30   H     H_    0.806925 0.283674 0.108568 0.111324
H31   H     H_    0.934790 0.213477 0.179822 0.217442
O11   O     O_R   0.771990 0.083520 0.910980 -0.544276
O12   O     O_R   0.442180 0.095020 0.086060 -0.523055
O13   O     O_R   0.271950 0.914280 0.086680 -0.520901
C37   C     C_R   0.611002 0.119715 0.113373 0.710552
O14   O     O_R   0.442270 0.094630 0.911580 -0.546905
O15   O     O_R   0.272040 0.913890 0.910940 -0.543324
C38   C     C_R   0.611819 0.115389 0.881879 0.657298
O16   O     O_R   0.771900 0.083910 0.086710 -0.525164
O17   O     O_3   0.605520 0.939610 0.998840 -0.379130
V3    V     V_3+5 0.330640 0.009880 0.998810 1.458094
O18   O     O_R   0.942330 0.902710 0.911540 -0.546063
C39   C     C_R   0.111383 0.880964 0.882484 0.675024
O19   O     O_R   0.942240 0.903100 0.086030 -0.547617
C40   C     C_R   0.110465 0.878608 0.113487 0.696450
V4    V     V_3+5 0.830640 0.987830 0.998780 1.424162
O20   O     O_3   0.105630 0.058150 0.998800 -0.362157
C41   C     C_3   0.768505 0.741222 0.162443 -0.835561
H32   H     H_    0.816774 0.673331 0.139436 0.209935
H33   H     H_    0.632877 0.728731 0.197011 0.192134
H34   H     H_    0.731724 0.783802 0.107733 0.241437
C42   C     C_2   0.847370 0.768900 0.380813 0.704632
O21   O     O_2   0.729309 0.728182 0.423816 -0.558648
O22   O     O_R   0.894917 0.859351 0.400995 -0.633164
H35   H     H_    0.815889 0.884822 0.449481 0.332261
C43   C     C_2   0.475070 0.195245 0.594805 0.760337
O23   O     O_2   0.597828 0.138320 0.579028 -0.541117
O24   O     O_R   0.325169 0.208676 0.538354 -0.653694
H36   H     H_    0.328312 0.163018 0.489979 0.282567
C44   C     C_3   0.457397 0.426840 0.793478 -0.854848
H37   H     H_    0.329740 0.390994 0.816143 0.278698
H38   H     H_    0.492488 0.478774 0.842832 0.200281
H39   H     H_    0.426266 0.463266 0.734521 0.219391
C45   C     C_2   0.003324 0.315706 0.735000 0.662272
O25   O     O_2   0.053168 0.305741 0.808217 -0.600786
O26   O     O_R   0.077588 0.389043 0.689370 -0.641070
H40   H     H_    0.107236 0.443824 0.726573 0.261815
C46   C     C_3   0.391302 0.421849 0.226685 -0.841074
H41   H     H_    0.494105 0.449267 0.179581 0.211737
H42   H     H_    0.248153 0.418517 0.196494 0.202326
H43   H     H_    0.380464 0.470693 0.279984 0.215299
C47   C     C_3   0.035813 0.833574 0.594964 -0.756481
H44   H     H_    0.002883 0.906911 0.606024 0.224754
H45   H     H_    0.156072 0.827603 0.549258 0.222727
H46   H     H_    0.907603 0.798149 0.569348 0.224917
C48   C     C_2   0.855573 0.206869 0.386645 0.853450
O27   O     O_2   0.862278 0.201468 0.463484 -0.537689
O28   O     O_R   0.023955 0.199062 0.339261 -0.666612
H47   H     H_    0.141222 0.191062 0.375516 0.270373
C49   C     C_2   0.725523 0.062169 0.281143 0.802527
O29   O     O_2   0.659463 0.997096 0.319827 -0.556710
O30   O     O_R   0.901531 0.055595 0.240957 -0.627339
H48   H     H_    0.933039 0.990095 0.228965 0.286291
C50   C     C_3   0.515702 0.684309 0.741853 -0.796775
H49   H     H_    0.590322 0.706962 0.800033 0.201289
H50   H     H_    0.517756 0.608994 0.739024 0.204127
H51   H     H_    0.589166 0.711470 0.684954 0.223966
C51   C     C_2   0.247386 0.939346 0.287138 0.815079
O31   O     O_2   0.279760 0.001056 0.237491 -0.567333
O32   O     O_R   0.209419 0.960878 0.371730 -0.622016
H52   H     H_    0.208514 0.029165 0.383163 0.311297

loop_
_geom_bond_atom_site_label_1
_geom_bond_atom_site_label_2
_ccdc_geom_bond_type
C37   O16   A    
C29   C30   S    
V3    O20   S    
O28   H47   S    
C6    C7    S    
C32   C36   S    
C1    O6    A    
C49   O29   D    
C45   O26   S    
O26   H40   S    
O15   C39   A    
C27   H22   S    
C24   C25   S    
C14   C18   S    
C16   C17   S    
O13   V3    S    
C5    C12   S    
C48   O28   S    
O14   C38   A    
O17   V3    S    
C23   H21   S    
O5    C3    A    
O24   H36   S    
C28   H20   S    
V2    O10   S    
C41   H34   S    
C5    H2    S    
C44   H37   S    
H27   C35   S    
C6    H1    S    
C9    C12   S    
C16   C20   S    
C45   O25   D    
O11   C38   A    
O8    V2    S    
C20   H11   S    
C46   H42   S    
C50   H49   S    
C30   H25   S    
C41   H33   S    
C13   C17   S    
C9    C10   S    
C14   H7    S    
H17   C27   S    
O7    V1    S    
C47   H46   S    
O12   V3    S    
O16   V4    S    
C18   C20   S    
O13   C40   A    
O9    C4    A    
C15   C19   S    
V4    O20   S    
C6    C11   S    
C43   O24   S    
C43   O23   D    
O12   C37   A    
C23   C25   S    
O18   V4    S    
C21   C22   S    
C24   H18   S    
C16   H10   S    
O17   V4    S    
C10   C11   S    
C51   O32   S    
O32   H52   S    
C2    C33   S    
O4    C2    A    
O15   V3    S    
O19   C40   A    
C11   C12   S    
C36   H30   S    
C21   C43   S    
C16   C41   S    
C3    C18   S    
O2    C1    A    
C34   C35   S    
C13   H5    S    
C20   C42   S    
C26   C38   S    
C14   H6    S    
O8    C3    A    
C41   H32   S    
C21   C25   S    
O19   V4    S    
C5    C6    S    
C36   H31   S    
C4    C12   S    
C34   C36   S    
O3    C4    A    
O1    V2    S    
C29   C46   S    
C24   C45   S    
C50   H50   S    
C22   H15   S    
O6    V2    S    
C8    H3    S    
O9    V2    S    
C31   C35   S    
C35   C49   S    
C15   H12   S    
C26   C27   S    
O11   V4    S    
O2    V1    S    
C9    C47   S    
C47   H44   S    
C47   H45   S    
C32   H28   S    
C42   O22   S    
C7    C39   S    
C22   C26   S    
C21   H14   S    
C18   C19   S    
C1    C25   S    
O1    C2    A    
C10   H4    S    
C51   O31   D    
C49   O30   S    
O5    V1    S    
C32   H29   S    
C24   C28   S    
C44   H39   S    
C5    C8    S    
C30   C34   S    
C46   H43   S    
C15   C17   S    
O30   H48   S    
O7    V2    S    
O4    V1    S    
C13   C14   S    
O3    V1    S    
V1    O10   S    
C34   C37   S    
O18   C39   A    
C44   H38   S    
C50   H51   S    
C17   C40   S    
C22   H16   S    
C42   O21   D    
C26   C28   S    
C46   H41   S    
H8    C15   S    
O22   H35   S    
H9    C19   S    
C28   H19   S    
C23   C27   S    
C29   H23   S    
C31   C48   S    
C32   C33   S    
C13   C51   S    
C29   C33   S    
C23   C44   S    
H26   C31   S    
C30   H24   S    
O14   V3    S    
C7    C10   S    
C19   H13   S    
C8    C9    S    
C31   C33   S    
C7    C8    S    
C11   C50   S    
C48   O27   D    
