data_mof_unit_54422.cif
_audit_creation_date              2012-12-10T17:16:35-0500
_audit_creation_method            fapswitch 2.2
_symmetry_space_group_name_H-M    P1
_symmetry_Int_Tables_number       1
_space_group_crystal_system       triclinic
_cell_length_a                    10.204111
_cell_length_b                    10.607034
_cell_length_c                    10.776675
_cell_angle_alpha                 91.73231
_cell_angle_beta                  95.767357
_cell_angle_gamma                 79.862484
_cell_volume                      1142.30150914

loop_
_atom_site_label
_atom_site_type_symbol
_atom_type_description
_atom_site_fract_x
_atom_site_fract_y
_atom_site_fract_z
_atom_type_partial_charge
Br1   Br    Br    0.935128 0.429385 0.703874 -0.487894
Br2   Br    Br    0.145039 0.347141 0.375886 -0.430542
Br3   Br    Br    0.852216 0.506068 0.285607 -0.448902
Br4   Br    Br    0.088503 0.684825 0.658649 -0.443240
C1    C     C_R   0.443669 0.512231 0.267324 0.941552
C2    C     C_R   0.493228 0.740542 0.484970 0.862233
C3    C     C_R   0.752663 0.064840 0.470872 -0.101915
C4    C     C_R   0.247944 0.936054 0.528917 -0.083823
C5    C     C_R   0.840830 0.989262 0.396519 -0.146787
C6    C     C_R   0.159764 0.011554 0.603342 -0.124407
C7    C     C_R   0.802128 0.884789 0.331252 -0.096473
C8    C     C_R   0.198878 0.115242 0.669594 -0.109269
C9    C     C_R   0.679442 0.850606 0.347890 -0.095246
C10   C     C_R   0.321500 0.149538 0.653103 -0.100119
C11   C     C_R   0.593290 0.921745 0.429874 0.074805
C12   C     C_R   0.555982 0.496141 0.732894 0.928701
C13   C     C_R   0.407666 0.078419 0.571071 0.085440
C14   C     C_R   0.622331 0.037992 0.479212 0.086659
C15   C     C_R   0.378498 0.962374 0.521407 0.086100
C16   C     C_R   0.480804 0.877614 0.466168 -0.242844
C17   C     C_R   0.519917 0.122632 0.534550 -0.241432
C18   C     C_2   0.411031 0.532567 0.135382 -0.343669
C19   C     C_2   0.586919 0.508006 0.865787 -0.320481
C20   C     C_2   0.509119 0.547990 0.067555 -0.156992
C21   C     C_2   0.486038 0.549719 0.934661 -0.145857
C22   C     C_2   0.079444 0.474935 0.496744 0.345141
C23   C     C_2   0.941547 0.466240 0.531787 0.323542
C24   C     C_R   0.506973 0.259602 0.515418 0.892386
H1    H     H_    0.132619 0.171382 0.730738 0.182207
H2    H     H_    0.610516 0.548590 0.108909 0.227262
H3    H     H_    0.689381 0.481600 0.907346 0.201259
H4    H     H_    0.309595 0.532248 0.093476 0.188481
H5    H     H_    0.868653 0.828071 0.270594 0.170292
H6    H     H_    0.789795 0.141229 0.524325 0.173500
H7    H     H_    0.210850 0.860093 0.474765 0.176202
H8    H     H_    0.938657 0.012675 0.388500 0.156569
H9    H     H_    0.061623 0.988687 0.610764 0.169442
H10   H     H_    0.652073 0.768187 0.296694 0.162117
H11   H     H_    0.348468 0.232267 0.704093 0.152337
H12   H     H_    0.383172 0.575699 0.893754 0.220143
N1    N     N_2   0.157300 0.551390 0.551120 -0.022424
N2    N     N_2   0.842700 0.448610 0.448880 -0.015445
O1    O     O_R   0.568940 0.489660 0.307530 -0.582093
O2    O     O_R   0.431060 0.510340 0.692470 -0.605787
O3    O     O_R   0.348880 0.522640 0.340350 -0.581292
O4    O     O_R   0.651120 0.477360 0.659650 -0.569524
O5    O     O_R   0.610030 0.300280 0.483580 -0.615725
O6    O     O_R   0.389970 0.699720 0.516420 -0.609276
O7    O     O_R   0.389970 0.333270 0.516400 -0.579390
O8    O     O_R   0.610030 0.666730 0.483600 -0.587276
Zn1   Zn    Zn3+2 0.646940 0.477980 0.478080 1.044967
Zn2   Zn    Zn3+2 0.353060 0.522020 0.521920 1.036789

loop_
_geom_bond_atom_site_label_1
_geom_bond_atom_site_label_2
_ccdc_geom_bond_type
C11   C14   A    
C24   O5    A    
C8    H1    S    
C5    H8    S    
C14   C17   A    
C2    C16   S    
C24   O7    A    
C12   O2    A    
N1    Zn2   S    
C15   C16   A    
C10   C13   A    
C7    H5    S    
N2    Zn1   S    
O7    Zn2   S    
O1    Zn1   S    
C3    C14   A    
C19   C21   D    
O8    Zn1   S    
C1    O1    A    
Br2   C22   S    
C2    O8    A    
C5    C7    A    
C23   N2    D    
O2    Zn2   S    
C9    H10   S    
C2    O6    A    
C18   H4    S    
C6    H9    S    
C6    C8    A    
C13   C15   A    
C17   C24   S    
C8    C10   A    
C12   C19   S    
C18   C20   D    
C9    C11   A    
C21   H12   S    
C22   C23   S    
C11   C16   A    
C3    H6    S    
C20   H2    S    
C7    C9    A    
Br4   N1    S    
C4    C15   A    
C3    C5    A    
O6    Zn2   S    
Br3   N2    S    
C20   C21   S    
C4    C6    A    
C12   O4    A    
Br1   C23   S    
O5    Zn1   S    
O3    Zn2   S    
C10   H11   S    
C1    O3    A    
O4    Zn1   S    
C13   C17   A    
C1    C18   S    
C22   N1    D    
C4    H7    S    
C19   H3    S    
