data_mof_unit_37925.cif
_audit_creation_date              2012-12-11T15:48:56-0500
_audit_creation_method            fapswitch 2.2
_symmetry_space_group_name_H-M    P1
_symmetry_Int_Tables_number       1
_space_group_crystal_system       triclinic
_cell_length_a                    11.095747
_cell_length_b                    10.981206
_cell_length_c                    18.7832
_cell_angle_alpha                 90.635078
_cell_angle_beta                  90.291001
_cell_angle_gamma                 59.899618
_cell_volume                      1979.8845556

loop_
_atom_site_label
_atom_site_type_symbol
_atom_type_description
_atom_site_fract_x
_atom_site_fract_y
_atom_site_fract_z
_atom_type_partial_charge
C1    C     C_R   0.241511 0.646287 0.611058 0.556716
C2    C     C_R   0.566822 0.168261 0.715027 -0.180088
C3    C     C_R   0.563075 0.178563 0.788127 -0.162536
C4    C     C_R   0.656220 0.624371 0.599238 0.537064
C5    C     C_3   0.919153 0.124497 0.788110 -0.204091
C6    C     C_3   0.910221 0.137488 0.707761 -0.209865
C7    C     C_R   0.662999 0.186387 0.676654 0.001916
C8    C     C_R   0.186550 0.666143 0.836678 -0.042466
C9    C     C_R   0.155206 0.581306 0.794362 -0.030676
C10   C     C_R   0.162460 0.581713 0.720870 -0.062744
C11   C     C_R   0.214354 0.770409 0.728636 0.152379
C12   C     C_3   0.642618 0.611199 0.800786 -0.232331
C13   C     C_R   0.223819 0.757229 0.803346 0.005234
C14   C     C_3   0.223529 0.425880 0.796435 -0.255037
C15   C     C_3   0.227581 0.426548 0.715784 -0.238484
C16   C     C_R   0.627363 0.231066 0.603262 0.538172
C17   C     C_R   0.196390 0.671596 0.686012 -0.009522
C18   C     C_R   0.652765 0.658215 0.164945 0.019204
C19   C     C_R   0.747807 0.536284 0.201651 0.030180
C20   C     C_R   0.743014 0.530224 0.274333 0.038090
C21   C     C_R   0.531753 0.753622 0.277555 -0.164943
C22   C     C_R   0.535823 0.760648 0.202719 -0.170544
C23   C     C_3   0.716869 0.697423 0.806787 0.021748
C24   C     C_3   0.904469 0.454519 0.202727 -0.267779
C25   C     C_3   0.897246 0.450527 0.282817 -0.279156
C26   C     C_R   0.643033 0.642347 0.314401 0.019419
C27   C     C_R   0.634858 0.189877 0.168560 0.021437
C28   C     C_R   0.220511 0.649454 0.402208 0.551305
C29   C     C_R   0.518063 0.208630 0.206248 0.021419
C30   C     C_R   0.514465 0.220521 0.279065 0.033424
C31   C     C_R   0.729222 0.224134 0.278100 -0.153946
C32   C     C_R   0.731437 0.215757 0.203886 -0.153780
C33   C     C_3   0.449726 0.120694 0.208276 -0.269705
C34   C     C_3   0.681519 0.655709 0.672497 0.036590
C35   C     C_3   0.445447 0.135222 0.288405 -0.278604
C36   C     C_R   0.626294 0.213755 0.316500 0.020828
C37   C     C_R   0.116297 0.691246 0.188950 0.025196
C38   C     C_R   0.070810 0.811659 0.231594 0.043984
C39   C     C_R   0.083992 0.803535 0.304014 0.015714
C40   C     C_R   0.638869 0.619894 0.390553 0.541726
C41   C     C_R   0.169258 0.553468 0.295315 -0.164184
C42   C     C_R   0.156334 0.562666 0.221449 -0.178548
C43   C     C_3   0.104548 0.926995 0.227118 -0.264020
C44   C     C_3   0.115472 0.921494 0.307264 -0.272243
C45   C     C_3   0.838279 0.573835 0.691494 -0.239731
C46   C     C_R   0.146508 0.672055 0.336162 0.018796
C47   C     C_R   0.700329 0.104067 0.896715 0.525904
C48   C     C_R   0.750943 0.710204 0.882643 0.547475
C49   C     C_R   0.120243 0.704724 0.906732 0.558514
C50   C     C_R   0.672979 0.110939 0.102357 0.543122
C51   C     C_R   0.695641 0.688349 0.096825 0.557769
C52   C     C_R   0.611430 0.238857 0.392399 0.546678
C53   C     C_R   0.088525 0.712225 0.113984 0.553511
C54   C     C_3   0.628779 0.843712 0.766409 -0.052017
C55   C     C_3   0.630454 0.813265 0.684574 -0.232523
C56   C     C_3   0.603457 0.606619 0.722874 -0.234960
C57   C     C_3   0.857679 0.614796 0.766993 -0.267888
C58   C     C_2   0.478547 0.947499 0.790852 0.601510
C59   C     C_2   0.263352 0.844239 0.848293 0.652361
C60   C     C_R   0.674045 0.172464 0.826854 0.007139
C61   C     C_R   0.765761 0.199800 0.789071 -0.037529
C62   C     C_R   0.756355 0.212983 0.714966 -0.013901
Cl1   Cl    Cl    0.232006 0.907813 0.690966 -0.565645
Cr1   Cr    Cr6+3 0.392960 0.397920 0.502240 1.012925
Cr2   Cr    Cr6+3 0.398340 0.708480 0.501250 1.052862
Cr3   Cr    Cr6+3 0.708670 0.393570 0.496460 1.015196
Cr4   Cr    Cr6+3 0.937650 0.938540 0.007610 1.020777
Cr5   Cr    Cr6+3 0.625330 0.937370 0.994520 1.059070
Cr6   Cr    Cr6+3 0.937940 0.625230 0.001190 1.003017
H1    H     H_    0.687213 0.900348 0.774329 0.079053
H2    H     H_    0.948742 0.035523 0.679105 0.179199
H3    H     H_    0.156527 0.387016 0.818305 0.144346
H4    H     H_    0.324289 0.385593 0.823754 0.139054
H5    H     H_    0.332394 0.380878 0.692835 0.178268
H6    H     H_    0.158046 0.393482 0.690014 0.153690
H7    H     H_    0.445691 0.837432 0.306447 0.120580
H8    H     H_    0.454108 0.850800 0.175514 0.120215
H9    H     H_    0.951540 0.517045 0.184969 0.175557
H10   H     H_    0.947692 0.349087 0.177076 0.124371
H11   H     H_    0.937914 0.342752 0.303640 0.131734
H12   H     H_    0.627833 0.497954 0.709152 0.128578
H13   H     H_    0.528609 0.876916 0.657809 0.207463
H14   H     H_    0.936670 0.513443 0.310653 0.145535
H15   H     H_    0.810087 0.233490 0.305297 0.130230
H16   H     H_    0.815809 0.215139 0.175048 0.120887
H17   H     H_    0.521234 0.011452 0.190154 0.167313
H18   H     H_    0.344840 0.173733 0.183203 0.130123
H19   H     H_    0.338021 0.198072 0.309884 0.134171
H20   H     H_    0.513016 0.034307 0.316130 0.140672
H21   H     H_    0.212055 0.450661 0.319018 0.141435
H22   H     H_    0.183917 0.469025 0.189974 0.122236
H23   H     H_    0.930606 0.517230 0.795429 0.150881
H24   H     H_    0.016643 0.026362 0.207302 0.140266
H25   H     H_    0.701944 0.841479 0.657354 0.088050
H26   H     H_    0.205752 0.892781 0.200161 0.141639
H27   H     H_    0.221923 0.890777 0.325381 0.162585
H28   H     H_    0.031175 0.016795 0.334036 0.130361
H29   H     H_    0.902225 0.684897 0.763694 0.123508
H30   H     H_    0.899778 0.597505 0.653127 0.128482
H31   H     H_    0.712255 0.501987 0.819808 0.138845
H32   H     H_    0.548843 0.657116 0.834289 0.190428
H33   H     H_    0.489842 0.675492 0.716316 0.179663
H34   H     H_    0.878816 0.458361 0.689324 0.147009
H35   H     H_    0.359208 0.079648 0.869346 0.315175
H36   H     H_    0.188451 0.040130 0.886934 0.316234
H37   H     H_    0.488876 0.152830 0.688350 0.181384
H38   H     H_    0.481237 0.171752 0.813970 0.169088
H39   H     H_    0.963682 0.014472 0.806524 0.188566
H40   H     H_    0.958710 0.189172 0.813887 0.173903
H41   H     H_    0.948507 0.206175 0.686788 0.170314
O1    O     O_R   0.507380 0.255700 0.581440 -0.530445
O2    O     O_R   0.837170 0.593410 0.915250 -0.530002
O3    O     O_R   0.065200 0.635530 0.931570 -0.515173
O4    O     O_R   0.280320 0.527350 0.578930 -0.516444
O5    O     O_R   0.068260 0.828890 0.091840 -0.512646
O6    O     O_R   0.798870 0.057410 0.079340 -0.509489
O7    O     O_R   0.584930 0.080350 0.076780 -0.523246
O8    O     O_R   0.626960 0.809650 0.067060 -0.491808
O9    O     O_R   0.816040 0.596610 0.076510 -0.525234
O10   O     O_R   0.045610 0.638500 0.081060 -0.516213
O11   O     O_3   0.833640 0.833710 0.001100 -0.280277
O12   O     O_R   0.524480 0.695810 0.424040 -0.511961
O13   O     O_R   0.260510 0.739590 0.584590 -0.449606
O14   O     O_R   0.532300 0.695080 0.573820 -0.485616
O15   O     O_R   0.744840 0.503500 0.576370 -0.526631
O16   O     O_R   0.699120 0.276560 0.571960 -0.495851
O17   O     O_R   0.498940 0.256500 0.419860 -0.517126
O18   O     O_R   0.272500 0.528080 0.429150 -0.511898
O19   O     O_R   0.252060 0.740380 0.423010 -0.525804
O20   O     O_2   0.390190 0.019196 0.747052 -0.489013
O21   O     O_R   0.444525 0.983385 0.862148 -0.615882
O22   O     O_2   0.341645 0.791106 0.898973 -0.512543
O23   O     O_R   0.736390 0.504290 0.414790 -0.521065
O24   O     O_R   0.193022 0.989660 0.840674 -0.649123
O25   O     O_R   0.691300 0.277290 0.422170 -0.511300
O26   O     O_3   0.499990 0.499990 0.499980 -0.264138
O27   O     O_R   0.089400 0.825690 0.930570 -0.495379
O28   O     O_R   0.818460 0.054440 0.929850 -0.509300
O29   O     O_R   0.606060 0.077150 0.915510 -0.511806
O30   O     O_R   0.646550 0.806680 0.917570 -0.414955

loop_
_geom_bond_atom_site_label_1
_geom_bond_atom_site_label_2
_ccdc_geom_bond_type
C15   H6    S    
C21   C26   A    
Cr1   O26   S    
C34   C56   S    
C8    C13   A    
C57   H23   S    
C49   O27   A    
C27   C29   A    
C25   H11   S    
C41   C42   A    
C49   O3    A    
C2    C7    A    
C43   C44   S    
C53   O10   A    
C56   H12   S    
C21   H7    S    
C45   C57   S    
C29   C30   A    
C20   C26   A    
C4    O15   A    
C28   O19   A    
C11   Cl1   S    
C10   C15   S    
C38   C39   A    
C33   C35   S    
Cr6   O2    S    
C20   C25   S    
C32   H16   S    
C10   C17   A    
C50   O7    A    
Cr4   O6    S    
C29   C33   S    
C51   O8    A    
C4    O14   A    
C18   C19   A    
C44   H28   S    
Cr2   O14   S    
C37   C42   A    
Cr4   O28   S    
Cr4   O5    S    
C45   H34   S    
Cr5   O8    S    
C47   C60   S    
C19   C20   A    
C8    C9    A    
Cr1   O18   S    
H35   O21   S    
C54   H1    S    
C43   H26   S    
C41   C46   A    
C9    C10   A    
C36   C52   S    
C27   C50   S    
C37   C53   S    
C3    C60   A    
C41   H21   S    
C28   O18   A    
C34   C55   S    
C21   C22   A    
C6    H41   S    
C55   H25   S    
Cr4   O11   S    
C52   O17   A    
C18   C51   S    
C6    H2    S    
C4    C34   S    
C59   O22   D    
Cr1   O4    S    
C48   O30   A    
C14   H4    S    
C24   C25   S    
C45   H30   S    
Cr1   O1    S    
C3    H38   S    
C2    H37   S    
C31   H15   S    
Cr3   O16   S    
C60   C61   A    
C9    C14   S    
C1    O13   A    
C7    C62   A    
C37   C38   A    
C44   H27   S    
Cr5   O7    S    
Cr3   O23   S    
C35   H19   S    
C24   H10   S    
C51   O9    A    
C31   C32   A    
C12   C23   S    
Cr6   O11   S    
C58   O21   S    
Cr1   O17   S    
Cr6   O3    S    
C14   C15   S    
C5    C61   S    
C34   C45   S    
Cr2   O12   S    
C55   H13   S    
C12   C56   S    
C39   C46   A    
Cr3   O26   S    
C35   H20   S    
C24   H9    S    
C7    C16   S    
C48   O2    A    
Cr5   O30   S    
C1    O4    A    
C40   O12   A    
C23   C54   S    
C54   C58   S    
C23   C57   S    
C54   C55   S    
C11   C17   A    
C23   C48   S    
Cr6   O10   S    
C27   C32   A    
C18   C22   A    
C14   H3    S    
C22   H8    S    
Cr5   O11   S    
Cr2   O19   S    
C39   C44   S    
C13   C59   S    
C30   C35   S    
C40   O23   A    
C59   O24   S    
C1    C17   S    
Cr3   O15   S    
C30   C36   A    
C28   C46   S    
C6    C62   S    
C2    C3    A    
C33   H18   S    
C56   H33   S    
C38   C43   S    
C11   C13   A    
C26   C40   S    
C5    C6    S    
C5    H40   S    
C58   O20   D    
C57   H29   S    
C47   O28   A    
C43   H24   S    
Cr6   O9    S    
C19   C24   S    
C50   O6    A    
Cr2   O13   S    
C61   C62   A    
Cr4   O27   S    
C12   H31   S    
Cr2   O26   S    
Cr3   O25   S    
C53   O5    A    
C12   H32   S    
C15   H5    S    
C47   O29   A    
C25   H14   S    
C52   O25   A    
C31   C36   A    
Cr5   O29   S    
C16   O16   A    
C8    C49   S    
C33   H17   S    
C42   H22   S    
C16   O1    A    
H36   O24   S    
C5    H39   S    
