data_mof_unit_30403.cif
_audit_creation_date              2012-12-10T18:57:09-0500
_audit_creation_method            fapswitch 2.2
_symmetry_space_group_name_H-M    P1
_symmetry_Int_Tables_number       1
_space_group_crystal_system       triclinic
_cell_length_a                    10.731965
_cell_length_b                    9.837665
_cell_length_c                    10.701797
_cell_angle_alpha                 90.049886
_cell_angle_beta                  90.810037
_cell_angle_gamma                 89.363222
_cell_volume                      1129.68574528

loop_
_atom_site_label
_atom_site_type_symbol
_atom_type_description
_atom_site_fract_x
_atom_site_fract_y
_atom_site_fract_z
_atom_type_partial_charge
C1    C     C_R   0.259628 0.501089 0.500814 0.914590
C2    C     C_R   0.475504 0.623378 0.935963 -0.050008
C3    C     C_R   0.480532 0.499801 0.128174 -0.055661
C4    C     C_R   0.476173 0.500793 0.870970 -0.103457
C5    C     C_R   0.456186 0.378352 0.063934 -0.219442
C6    C     C_R   0.454673 0.378699 0.934556 -0.195466
C7    C     C_3   0.559819 0.743838 0.927994 0.246746
C8    C     C_3   0.567123 0.741319 0.070410 0.186589
C9    C     C_R   0.064508 0.385270 0.530023 -0.280198
C10   C     C_R   0.937115 0.383435 0.525691 -0.236958
C11   C     C_R   0.871660 0.497720 0.482524 -0.183611
C12   C     C_R   0.739623 0.499207 0.493376 0.879624
C13   C     C_R   0.126530 0.503877 0.497760 -0.148927
C14   C     C_R   0.933607 0.613681 0.439168 0.302218
C15   C     C_R   0.061244 0.621804 0.458709 0.423679
C16   C     C_3   0.780992 0.893932 0.649046 0.101633
C17   C     C_3   0.865303 0.794540 0.720263 -0.789907
C18   C     C_3   0.282481 0.928626 0.245819 0.087343
C19   C     C_3   0.213585 0.835644 0.155059 -0.764939
C20   C     C_R   0.575499 0.071651 0.580103 -0.206754
C21   C     C_R   0.425095 0.073730 0.419052 -0.253207
C22   C     C_R   0.579075 0.926789 0.578153 0.519490
C23   C     C_R   0.424390 0.927483 0.417026 0.490016
C24   C     C_R   0.497528 0.499867 0.259849 0.898422
C25   C     C_R   0.495879 0.500132 0.740013 0.863869
C26   C     C_R   0.481061 0.622139 0.063501 -0.059992
H1    H     H_    0.446445 0.282565 0.112541 0.164429
H2    H     H_    0.716841 0.623900 0.075648 0.322521
H3    H     H_    0.804293 0.679077 0.326263 0.382842
H4    H     H_    0.064112 0.817962 0.427242 0.362849
H5    H     H_    0.795671 0.995993 0.690847 0.120692
H6    H     H_    0.809992 0.895155 0.549547 0.179965
H7    H     H_    0.845167 0.688506 0.691892 0.254503
H8    H     H_    0.964392 0.816443 0.700506 0.213473
H9    H     H_    0.850487 0.804983 0.822292 0.243275
H10   H     H_    0.345640 0.992635 0.189535 0.105802
H11   H     H_    0.211442 0.992644 0.293583 0.150356
H12   H     H_    0.445013 0.282955 0.885454 0.181495
H13   H     H_    0.151158 0.766099 0.205261 0.294583
H14   H     H_    0.156490 0.897922 0.088845 0.200734
H15   H     H_    0.280584 0.774382 0.100663 0.229430
H16   H     H_    0.648834 0.720876 0.880381 0.173411
H17   H     H_    0.525494 0.831455 0.117301 0.168288
H18   H     H_    0.114256 0.295159 0.562284 0.189527
H19   H     H_    0.890017 0.293419 0.558066 0.178498
H20   H     H_    0.632143 0.127842 0.645998 0.152057
H21   H     H_    0.366706 0.134258 0.357303 0.141525
H22   H     H_    0.416585 0.870489 0.920430 0.320563
N1    N     N_R   0.500000 0.857200 0.500000 -0.147514
N2    N     N_R   0.500000 0.142810 0.500000 -0.104396
O1    O     O_R   0.316770 0.614620 0.499990 -0.525608
O2    O     O_3   0.686950 0.708303 0.117191 -0.768548
O3    O     O_3   0.873071 0.718419 0.376569 -0.779517
O4    O     O_3   0.124037 0.741256 0.436891 -0.731226
O5    O     O_3   0.655487 0.853441 0.659758 -0.553433
O6    O     O_3   0.351237 0.850503 0.334480 -0.541399
O7    O     O_R   0.683230 0.614620 0.500010 -0.579712
O8    O     O_R   0.316800 0.385290 0.500000 -0.641576
O9    O     O_R   0.683200 0.385290 0.500000 -0.625515
O10   O     O_R   0.500000 0.614690 0.316780 -0.562958
O11   O     O_R   0.500000 0.614690 0.683220 -0.564662
O12   O     O_R   0.500020 0.385360 0.316780 -0.640753
O13   O     O_R   0.499980 0.385360 0.683220 -0.629278
O14   O     O_3   0.499021 0.860659 0.880095 -0.723806
Zn1   Zn    Zn3+2 0.500000 0.653120 0.500000 1.079865
Zn2   Zn    Zn3+2 0.500000 0.346880 0.500000 0.943529

loop_
_geom_bond_atom_site_label_1
_geom_bond_atom_site_label_2
_ccdc_geom_bond_type
C20   N2    A    
C2    C4    A    
C11   C12   S    
C6    H12   S    
C22   O5    S    
C17   H8    S    
C16   H6    S    
C23   N1    A    
C1    O1    A    
C9    C10   A    
C8    O2    S    
C2    C7    S    
C8    H17   S    
C18   O6    S    
C24   O10   A    
H4    O4    S    
C10   H19   S    
C21   C23   A    
C4    C25   S    
O13   Zn2   S    
C23   O6    S    
C2    C26   A    
C25   O11   A    
C1    O8    A    
C16   H5    S    
H2    O2    S    
C5    H1    S    
C3    C24   S    
C17   H7    S    
C22   N1    A    
C12   O7    A    
C19   H13   S    
C21   N2    A    
C18   H11   S    
C20   C22   A    
O10   Zn1   S    
N2    Zn2   S    
C13   C15   A    
O9    Zn2   S    
O1    Zn1   S    
C5    C6    A    
C11   C14   A    
C21   H21   S    
C7    O14   S    
C16   O5    S    
C1    C13   S    
C19   H14   S    
O12   Zn2   S    
C15   O4    S    
O11   Zn1   S    
C7    C8    S    
C14   O3    S    
C8    C26   S    
C4    C6    A    
C18   C19   S    
C10   C11   A    
C7    H16   S    
C9    C13   A    
C14   C15   A    
C25   O13   A    
C9    H18   S    
C24   O12   A    
C17   H9    S    
H22   O14   S    
C3    C5    A    
N1    Zn1   S    
C12   O9    A    
C18   H10   S    
O8    Zn2   S    
C3    C26   A    
C20   H20   S    
C19   H15   S    
O7    Zn1   S    
C16   C17   S    
H3    O3    S    
