data_mof_unit_26261.cif
_audit_creation_date              2012-12-10T16:51:28-0500
_audit_creation_method            fapswitch 2.2
_symmetry_space_group_name_H-M    P1
_symmetry_Int_Tables_number       1
_space_group_crystal_system       triclinic
_cell_length_a                    7.847229
_cell_length_b                    8.565817
_cell_length_c                    12.575564
_cell_angle_alpha                 92.991073
_cell_angle_beta                  102.429754
_cell_angle_gamma                 93.84094
_cell_volume                      821.709610928

loop_
_atom_site_label
_atom_site_type_symbol
_atom_type_description
_atom_site_fract_x
_atom_site_fract_y
_atom_site_fract_z
_atom_type_partial_charge
Br1   Br    Br    0.474864 0.289146 0.379454 -0.336865
C1    C     C_R   0.044154 0.794431 0.497201 0.930570
C2    C     C_R   0.190059 0.586412 0.822088 -0.118743
C3    C     C_2   0.067170 0.958012 0.495540 -0.351734
C4    C     C_R   0.114392 0.530870 0.707453 0.849067
C5    C     C_2   0.932742 0.041990 0.504235 -0.365032
C6    C     C_R   0.955844 0.205584 0.502760 0.986691
C7    C     C_R   0.889898 0.485963 0.291939 0.933610
C8    C     C_R   0.849982 0.395904 0.993542 -0.281035
C9    C     C_R   0.826027 0.473753 0.175594 -0.200520
C10   C     C_R   0.083193 0.646700 0.887460 -0.227268
C11   C     C_R   0.146377 0.673851 0.999465 -0.108160
C12   C     C_R   0.426867 0.579373 0.982713 0.095815
C13   C     C_R   0.312668 0.632407 0.047881 -0.111360
C14   C     C_R   0.370156 0.575719 0.868669 0.090473
C15   C     C_R   0.594540 0.527097 0.025147 0.088855
C16   C     C_R   0.694989 0.465671 0.953486 0.066454
C17   C     C_R   0.646771 0.487221 0.843519 -0.234503
C18   C     C_R   0.496391 0.559106 0.805195 -0.175680
C19   C     C_R   0.666217 0.534481 0.135837 -0.301467
C20   C     C_R   0.916041 0.399571 0.105067 0.626454
F1    F     F_    0.068380 0.334306 0.143374 -0.635930
H1    H     H_    0.805800 0.991231 0.512496 0.189336
H2    H     H_    0.194085 0.008779 0.487233 0.202371
H3    H     H_    0.529389 0.640132 0.567988 0.138253
H4    H     H_    0.729786 0.456971 0.788443 0.182234
H5    H     H_    0.923441 0.344814 0.938565 0.177802
H6    H     H_    0.602190 0.591877 0.192738 0.192037
H7    H     H_    0.950339 0.671224 0.852249 0.166852
H8    H     H_    0.346563 0.643134 0.135748 0.153491
H9    H     H_    0.062069 0.718336 0.049809 0.153116
H10   H     H_    0.482777 0.604110 0.726527 0.162705
N1    N     N_2   0.434800 0.456690 0.470850 0.057136
N2    N     N_2   0.565200 0.543310 0.529150 -0.138436
O1    O     O_R   0.893060 0.738880 0.507150 -0.623220
O2    O     O_R   0.172250 0.711130 0.488470 -0.646168
O3    O     O_R   0.944700 0.520730 0.667600 -0.639467
O4    O     O_R   0.223890 0.492980 0.648920 -0.638687
O5    O     O_R   0.827750 0.288870 0.511530 -0.585978
O6    O     O_R   0.106940 0.261120 0.492850 -0.588001
O7    O     O_R   0.776110 0.507020 0.351080 -0.597070
O8    O     O_R   0.055300 0.479270 0.332400 -0.552146
Zn1   Zn    Zn3+2 0.813580 0.518530 0.512470 0.986386
Zn2   Zn    Zn3+2 0.186420 0.481470 0.487530 1.027764

loop_
_geom_bond_atom_site_label_1
_geom_bond_atom_site_label_2
_ccdc_geom_bond_type
C1    O1    A    
O3    Zn1   S    
C1    C3    S    
C10   C11   A    
O4    Zn2   S    
C5    C6    S    
C4    O3    A    
O1    Zn1   S    
C17   H4    S    
C8    H5    S    
C15   C19   A    
H3    N2    S    
C6    O6    A    
C16   C17   A    
C11   C13   A    
Br1   N1    S    
C9    C20   A    
C20   F1    S    
C8    C16   A    
C14   C18   A    
O7    Zn1   S    
C8    C20   A    
O8    Zn2   S    
C13   H8    S    
C18   H10   S    
C7    C9    S    
C7    O8    A    
N1    N2    D    
C12   C14   A    
C11   H9    S    
C3    H2    S    
O2    Zn2   S    
C2    C10   A    
C5    H1    S    
O6    Zn2   S    
C2    C14   A    
C7    O7    A    
C10   H7    S    
C3    C5    D    
C17   C18   A    
C12   C15   A    
C1    O2    A    
C6    O5    A    
O5    Zn1   S    
C19   H6    S    
C12   C13   A    
C4    O4    A    
N1    Zn2   S    
N2    Zn1   S    
C9    C19   A    
C15   C16   A    
C2    C4    S    
