data_mof_unit_59960.cif
_audit_creation_date              2012-12-11T14:08:02-0500
_audit_creation_method            fapswitch 2.2
_symmetry_space_group_name_H-M    P1
_symmetry_Int_Tables_number       1
_space_group_crystal_system       triclinic
_cell_length_a                    11.219168
_cell_length_b                    11.103668
_cell_length_c                    18.696186
_cell_angle_alpha                 90.308475
_cell_angle_beta                  89.509234
_cell_angle_gamma                 60.021177
_cell_volume                      2017.25334418

loop_
_atom_site_label
_atom_site_type_symbol
_atom_type_description
_atom_site_fract_x
_atom_site_fract_y
_atom_site_fract_z
_atom_type_partial_charge
C1    C     C_R   0.294782 0.621151 0.615102 0.654376
C2    C     C_2   0.794474 0.113756 0.698112 0.337083
C3    C     C_2   0.255991 0.638601 0.692145 0.284052
C4    C     C_R   0.650976 0.620610 0.601953 0.557839
C5    C     C_2   0.250415 0.635118 0.864113 0.289784
C6    C     C_2   0.260888 0.539001 0.815381 0.208331
C7    C     C_2   0.313350 0.530669 0.738955 0.205557
C8    C     C_2   0.675277 0.684040 0.337596 0.270798
C9    C     C_2   0.625412 0.659520 0.147560 0.207581
C10   C     C_2   0.659510 0.693555 0.209629 -0.125503
C11   C     C_2   0.622776 0.663258 0.278531 -0.087125
C12   C     C_3   0.702771 0.528445 0.802229 0.361237
C13   C     C_2   0.668202 0.144993 0.332612 -0.016363
C14   C     C_2   0.645809 0.156433 0.177015 0.233456
C15   C     C_2   0.614844 0.078701 0.220398 -0.105529
C16   C     C_R   0.627291 0.226051 0.601009 0.576184
C17   C     C_2   0.591182 0.103205 0.297544 0.282962
C18   C     C_2   0.118122 0.684527 0.347908 0.286039
C19   C     C_2   0.130060 0.680923 0.186935 0.334693
C20   C     C_2   0.045506 0.783214 0.232511 0.285154
C21   C     C_2   0.092242 0.789014 0.304076 0.260853
C22   C     C_R   0.705267 0.099657 0.896890 0.563152
C23   C     C_3   0.700202 0.668291 0.813416 0.048373
C24   C     C_R   0.722790 0.686000 0.889740 0.595453
C25   C     C_R   0.131752 0.698856 0.915409 0.517887
C26   C     C_R   0.674408 0.108178 0.103370 0.561356
C27   C     C_R   0.687520 0.682693 0.086245 0.582089
C28   C     C_R   0.215440 0.651939 0.405619 0.565298
C29   C     C_R   0.093672 0.708850 0.112392 0.562112
C30   C     C_R   0.649227 0.630775 0.401766 0.526514
C31   C     C_R   0.619665 0.224531 0.397779 0.565600
C32   C     C_3   0.560461 0.793666 0.788514 -0.199823
C33   C     C_3   0.537510 0.787364 0.707799 0.398108
C34   C     C_3   0.667738 0.648844 0.676864 0.016610
C35   C     C_3   0.818144 0.672235 0.768690 0.498421
C36   C     C_3   0.916744 0.324866 0.694293 0.038519
C37   C     C_3   0.006263 0.581715 0.616685 -0.121030
C38   C     C_3   0.939701 0.988816 0.601620 -0.094602
C39   C     C_3   0.362889 0.731406 0.926037 -0.072336
C40   C     C_3   0.394154 0.082027 0.293529 -0.082749
C41   C     C_3   0.746989 0.293817 0.170963 -0.076751
C42   C     C_3   0.295168 0.924177 0.717129 -0.063445
C43   C     C_3   0.294059 0.450264 0.170471 -0.072854
C44   C     C_3   0.921900 0.809554 0.785297 -0.024841
C45   C     C_3   0.796883 0.667616 0.684749 0.449668
C46   C     C_3   0.685053 0.517036 0.721123 0.169001
C47   C     C_2   0.675215 0.141960 0.667472 0.265337
C48   C     C_2   0.695729 0.159272 0.824904 -0.010372
C49   C     C_2   0.806149 0.116451 0.779649 0.214668
Cr1   Cr    Cr6+3 0.393010 0.398050 0.501480 1.030648
Cr2   Cr    Cr6+3 0.398820 0.707980 0.501630 1.043286
Cr3   Cr    Cr6+3 0.708140 0.393940 0.496850 1.051658
Cr4   Cr    Cr6+3 0.937950 0.938450 0.008940 1.049744
Cr5   Cr    Cr6+3 0.626180 0.937030 0.994750 1.020639
Cr6   Cr    Cr6+3 0.937790 0.625760 0.001410 1.090849
H1    H     H_    0.553912 0.894984 0.801039 0.216795
H2    H     H_    0.952288 0.383561 0.724501 0.195950
H3    H     H_    0.960994 0.303239 0.639290 0.176535
H4    H     H_    0.016519 0.534288 0.754831 0.317724
H5    H     H_    0.028279 0.649835 0.650620 0.154080
H6    H     H_    0.971048 0.627718 0.563063 0.132350
H7    H     H_    0.101783 0.480493 0.609228 0.162309
H8    H     H_    0.005410 0.027381 0.772649 0.337365
H9    H     H_    0.863518 0.025244 0.558157 0.107111
H10   H     H_    0.952119 0.890672 0.623022 0.162212
H11   H     H_    0.038441 0.965896 0.576261 0.176507
H12   H     H_    0.593404 0.214735 0.805150 0.125940
H13   H     H_    0.506475 0.132432 0.676810 0.369289
H14   H     H_    0.225749 0.386836 0.795928 0.316492
H15   H     H_    0.418397 0.332784 0.745078 0.328645
H16   H     H_    0.466504 0.719114 0.926701 0.133517
H17   H     H_    0.361388 0.665865 0.970642 0.119669
H18   H     H_    0.292015 0.843504 0.937249 0.149305
H19   H     H_    0.163768 0.786896 0.762706 0.322723
H20   H     H_    0.468553 0.643116 0.180181 0.353386
H21   H     H_    0.785152 0.747704 0.386489 0.319433
H22   H     H_    0.432071 0.988487 0.258573 0.123268
H23   H     H_    0.475831 0.795902 0.819372 0.167191
H24   H     H_    0.344315 0.178995 0.261627 0.106203
H25   H     H_    0.313982 0.084066 0.329479 0.161452
H26   H     H_    0.726108 0.324346 0.113924 0.160780
H27   H     H_    0.849039 0.198133 0.177004 0.124436
H28   H     H_    0.752138 0.378054 0.200281 0.166414
H29   H     H_    0.878471 0.953577 0.250514 0.306812
H30   H     H_    0.212441 0.952865 0.677620 0.189935
H31   H     H_    0.314005 0.013244 0.719050 0.122074
H32   H     H_    0.256490 0.920092 0.771196 0.149006
H33   H     H_    0.099308 0.955518 0.280631 0.313073
H34   H     H_    0.728907 0.735717 0.208696 0.188204
H35   H     H_    0.333953 0.454321 0.116434 0.135795
H36   H     H_    0.207704 0.428216 0.166833 0.121620
H37   H     H_    0.377077 0.362457 0.199517 0.185471
H38   H     H_    0.084981 0.532125 0.371076 0.330692
H39   H     H_    0.495132 0.911015 0.625377 0.341997
H40   H     H_    0.921463 0.860670 0.735662 0.193381
H41   H     H_    0.017451 0.712142 0.787779 0.119816
H42   H     H_    0.922349 0.867442 0.832647 0.193973
H43   H     H_    0.752359 0.792734 0.602573 0.314291
H44   H     H_    0.814844 0.335528 0.833488 0.367564
H45   H     H_    0.562187 0.611697 0.282168 0.124192
H46   H     H_    0.620170 0.501352 0.889027 0.330529
H47   H     H_    0.612393 0.988715 0.199121 0.125042
H48   H     H_    0.753970 0.147409 0.306941 0.088689
H49   H     H_    0.581161 0.528223 0.715981 0.204547
H50   H     H_    0.965780 0.227047 0.723781 0.156134
O1    O     O_R   0.507110 0.256280 0.580300 -0.518096
O2    O     O_R   0.837080 0.593860 0.915300 -0.400042
O3    O     O_R   0.064770 0.636080 0.932550 -0.438527
O4    O     O_R   0.280830 0.527190 0.577940 -0.542799
O5    O     O_R   0.068250 0.829200 0.092940 -0.504407
O6    O     O_R   0.799650 0.057040 0.080330 -0.487206
O7    O     O_R   0.586130 0.079760 0.077080 -0.546760
O8    O     O_R   0.627700 0.809630 0.066580 -0.521078
O9    O     O_R   0.816140 0.597180 0.075920 -0.532254
O10   O     O_R   0.045360 0.639170 0.081440 -0.527208
O11   O     O_3   0.833980 0.833750 0.001700 -0.272858
O12   O     O_R   0.524640 0.695370 0.425100 -0.502769
O13   O     O_R   0.261360 0.738990 0.584270 -0.501176
O14   O     O_R   0.532590 0.694780 0.574370 -0.519902
O15   O     O_R   0.744470 0.503750 0.577000 -0.450192
O16   O     O_R   0.698520 0.277230 0.571620 -0.460255
O17   O     O_R   0.498530 0.256920 0.419280 -0.451318
O18   O     O_R   0.272880 0.527780 0.428680 -0.520067
O19   O     O_R   0.252780 0.739630 0.423250 -0.465737
O20   O     O_3   0.771949 0.380534 0.691813 -0.535068
O21   O     O_3   0.944621 0.559798 0.791901 -0.629807
O22   O     O_3   0.909598 0.553555 0.648991 -0.636246
O23   O     O_R   0.735890 0.504390 0.415980 -0.518093
O24   O     O_3   0.933536 0.069861 0.810272 -0.727643
O25   O     O_3   0.907248 0.090810 0.655723 -0.618166
O26   O     O_3   0.594373 0.098222 0.702085 -0.695643
O27   O     O_3   0.217005 0.448135 0.836666 -0.687303
O28   O     O_3   0.407974 0.403731 0.710659 -0.739287
O29   O     O_3   0.334743 0.693624 0.857711 -0.576708
O30   O     O_3   0.158127 0.771509 0.711584 -0.797841
O31   O     O_3   0.531908 0.614112 0.138450 -0.725704
O32   O     O_3   0.757685 0.743925 0.336593 -0.679891
O33   O     O_3   0.501252 0.073950 0.336001 -0.528877
O34   O     O_R   0.690560 0.277820 0.422350 -0.517483
O35   O     O_3   0.640122 0.278195 0.201315 -0.603804
O36   O     O_3   0.919915 0.888227 0.210027 -0.719813
O37   O     O_3   0.410015 0.791039 0.698092 -0.538410
O38   O     O_3   0.120888 0.892932 0.322132 -0.720233
O39   O     O_3   0.256511 0.573350 0.209445 -0.599688
O40   O     O_3   0.068905 0.595579 0.330666 -0.700028
O41   O     O_3   0.530373 0.904282 0.674515 -0.660503
O42   O     O_3   0.802059 0.802968 0.788511 -0.542240
O43   O     O_3   0.773910 0.793791 0.653903 -0.648347
O44   O     O_3   0.827013 0.417320 0.827930 -0.650340
O45   O     O_3   0.499990 0.499990 0.499980 -0.295176
O46   O     O_3   0.592615 0.528557 0.838689 -0.705505
O47   O     O_R   0.089190 0.825870 0.932320 -0.531978
O48   O     O_R   0.819070 0.053960 0.931440 -0.459126
O49   O     O_R   0.607070 0.076440 0.916460 -0.501743
O50   O     O_R   0.647110 0.806550 0.917690 -0.544218

loop_
_geom_bond_atom_site_label_1
_geom_bond_atom_site_label_2
_ccdc_geom_bond_type
Cr4   O5    S    
H39   O41   S    
C22   C48   S    
Cr4   O48   S    
C19   O39   S    
C26   O7    A    
H13   O26   S    
C18   C21   D    
C46   O20   S    
C36   O20   S    
Cr1   O17   S    
C39   O29   S    
C18   O40   S    
Cr3   O34   S    
C37   H7    S    
Cr3   O23   S    
C28   O18   A    
H21   O32   S    
H4    O21   S    
H44   O44   S    
C12   C23   S    
Cr6   O10   S    
C25   O47   A    
C38   O25   S    
C7    O28   S    
C36   H3    S    
H14   O27   S    
C5    C6    D    
C19   C29   S    
Cr6   O11   S    
C45   O43   S    
Cr5   O8    S    
C44   O42   S    
C44   H42   S    
C10   H34   S    
C41   O35   S    
Cr5   O11   S    
C1    O4    A    
C30   O23   A    
C38   H11   S    
Cr2   O45   S    
C40   O33   S    
C42   O37   S    
H15   O28   S    
Cr2   O14   S    
C39   H17   S    
C40   H25   S    
C4    O14   A    
H38   O40   S    
C17   O33   S    
C42   H31   S    
C13   H48   S    
C9    C10   D    
H33   O38   S    
C24   O50   A    
C16   O1    A    
Cr4   O6    S    
C39   H18   S    
C29   O10   A    
C15   H47   S    
Cr2   O19   S    
C12   O46   S    
C43   O39   S    
C12   O44   S    
C16   C47   S    
C38   H9    S    
C5    O29   S    
C4    C34   S    
C43   H35   S    
C29   O5    A    
C18   C28   S    
C21   O38   S    
C6    O27   S    
C36   H2    S    
C33   O41   S    
Cr5   O50   S    
C42   H30   S    
C46   H49   S    
H20   O31   S    
C49   O24   S    
H46   O46   S    
Cr1   O4    S    
C43   H36   S    
Cr6   O2    S    
C8    O32   S    
C1    C3    S    
C35   O21   S    
C16   O16   A    
C27   O9    A    
C44   H41   S    
C2    C49   S    
Cr4   O47   S    
Cr3   O16   S    
Cr1   O45   S    
C38   H10   S    
C23   C24   S    
C41   H26   S    
H19   O30   S    
C33   C34   S    
C40   H24   S    
Cr5   O7    S    
C24   O2    A    
C35   O42   S    
C14   C26   S    
C34   C45   S    
C34   C46   S    
Cr3   O15   S    
C12   C46   S    
C48   C49   D    
Cr6   O9    S    
C14   O35   S    
C23   C35   S    
C2    C47   D    
C5    C25   S    
C31   O34   A    
C35   C45   S    
C27   O8    A    
C9    C27   S    
C22   O49   A    
C15   C17   S    
C36   H50   S    
C14   C15   D    
C20   O36   S    
C13   C31   S    
C4    O15   A    
Cr1   O18   S    
C31   O17   A    
Cr5   O49   S    
C37   H6    S    
C28   O19   A    
C6    C7    S    
C30   O12   A    
C33   O37   S    
C3    C7    D    
C43   H37   S    
C13   C17   D    
Cr6   O3    S    
Cr4   O11   S    
C8    C30   S    
C23   C32   S    
C19   C20   D    
C44   H40   S    
C32   C33   S    
H43   O43   S    
H29   O36   S    
C45   O22   S    
C8    C11   D    
C41   H27   S    
C2    O25   S    
C3    O30   S    
C1    O13   A    
H8    O24   S    
C48   H12   S    
C37   H5    S    
C10   C11   S    
C32   H23   S    
Cr2   O13   S    
C9    O31   S    
C20   C21   S    
Cr3   O45   S    
C47   O26   S    
Cr1   O1    S    
Cr2   O12   S    
C39   H16   S    
C40   H22   S    
C11   H45   S    
C42   H32   S    
C26   O6    A    
C32   H1    S    
C25   O3    A    
C37   O22   S    
C22   O48   A    
C41   H28   S    
