data_mof_unit_67550.cif
_audit_creation_date              2012-10-26T18:48:16-0400
_audit_creation_method            fapswitch 2.2
_symmetry_space_group_name_H-M    P1
_symmetry_Int_Tables_number       1
_space_group_crystal_system       triclinic
_cell_length_a                    10.625856
_cell_length_b                    8.706549
_cell_length_c                    7.467722
_cell_angle_alpha                 102.373965
_cell_angle_beta                  94.771367
_cell_angle_gamma                 93.000945
_cell_volume                      670.735111611

loop_
_atom_site_label
_atom_site_type_symbol
_atom_type_description
_atom_site_fract_x
_atom_site_fract_y
_atom_site_fract_z
_atom_type_partial_charge
C1    C     C_R   0.491859 0.200673 0.455369 0.530686
C2    C     C_3   0.123946 0.499194 0.502655 -0.011314
C3    C     C_3   0.968042 0.513478 0.671240 0.420738
C4    C     C_3   0.031958 0.486522 0.328760 0.420738
C5    C     C_2   0.468197 0.035149 0.439043 -0.010050
C6    C     C_2   0.531803 0.964851 0.560957 -0.010049
C7    C     C_3   0.884972 0.212465 0.270022 -0.352760
C8    C     C_3   0.115028 0.787535 0.729977 -0.352761
C9    C     C_3   0.083021 0.239057 0.644320 -0.332371
C10   C     C_3   0.916979 0.760943 0.355680 -0.332370
C11   C     C_3   0.359962 0.953867 0.298704 -0.359037
C12   C     C_R   0.508141 0.799327 0.544631 0.530686
C13   C     C_3   0.640038 0.046133 0.701295 -0.359037
C14   C     C_R   0.259907 0.499065 0.501102 0.532941
C15   C     C_R   0.740093 0.500935 0.498898 0.532941
C16   C     C_3   0.038847 0.377392 0.567094 -0.049362
C17   C     C_3   0.961153 0.622607 0.432906 -0.049362
C18   C     C_3   0.946461 0.364755 0.393061 -0.053686
C19   C     C_3   0.053539 0.635245 0.606939 -0.053686
C20   C     C_3   0.876054 0.500806 0.497345 -0.011314
Cu1   Cu    Cu3+1 0.514140 0.517380 0.684380 1.156842
Cu2   Cu    Cu3+1 0.485860 0.482620 0.315620 1.156842
F1    F     F_    0.932993 0.528175 0.847946 -0.556108
F2    F     F_    0.067007 0.471825 0.152054 -0.556108
F3    F     F_    0.385056 0.348143 0.924383 -0.555184
F4    F     F_    0.614944 0.651856 0.075617 -0.555184
H1    H     H_    0.959445 0.136232 0.214216 0.146021
H2    H     H_    0.000232 0.830887 0.326715 0.133835
H3    H     H_    0.854792 0.716556 0.226059 0.245805
H4    H     H_    0.863755 0.837349 0.457258 0.106451
H5    H     H_    0.303377 0.040675 0.244435 0.138025
H6    H     H_    0.397458 0.876943 0.179401 0.191007
H7    H     H_    0.293708 0.883863 0.363003 0.121383
H8    H     H_    0.696625 0.959324 0.755562 0.138024
H9    H     H_    0.706292 0.116138 0.636996 0.121383
H10   H     H_    0.602543 0.123055 0.820600 0.191006
H11   H     H_    0.826057 0.149226 0.351108 0.111754
H12   H     H_    0.824294 0.239665 0.154121 0.183799
H13   H     H_    0.040556 0.863769 0.785782 0.146020
H14   H     H_    0.175705 0.760335 0.845879 0.183800
H15   H     H_    0.173944 0.850772 0.648892 0.111754
H16   H     H_    0.999768 0.169113 0.673285 0.133835
H17   H     H_    0.136245 0.162652 0.542743 0.106451
H18   H     H_    0.145208 0.283444 0.773941 0.245804
N1    N     N_2   0.464560 0.456420 0.038510 0.188106
N2    N     N_2   0.535440 0.543580 0.961490 0.188106
O1    O     O_R   0.509190 0.286130 0.619780 -0.485496
O2    O     O_R   0.490810 0.713870 0.380220 -0.485497
O3    O     O_R   0.485310 0.256770 0.308360 -0.503907
O4    O     O_R   0.514690 0.743230 0.691640 -0.503907
O5    O     O_R   0.328790 0.514640 0.655680 -0.482701
O6    O     O_R   0.671210 0.485360 0.344320 -0.482700
O7    O     O_R   0.304910 0.485280 0.344260 -0.455415
O8    O     O_R   0.695090 0.514720 0.655740 -0.455415

loop_
_geom_bond_atom_site_label_1
_geom_bond_atom_site_label_2
_ccdc_geom_bond_type
C2    C4    S    
C3    C19   S    
C8    H13   S    
C2    C16   S    
C10   H4    S    
C3    F1    S    
C14   O5    A    
Cu1   O5    S    
C12   O2    A    
C7    C18   S    
C4    C18   S    
C17   C20   S    
C15   O6    A    
C7    H11   S    
C11   H5    S    
C13   H8    S    
C3    C20   S    
Cu1   Cu2   S    
C6    C13   S    
C10   H3    S    
C9    H16   S    
Cu1   O8    S    
Cu2   O3    S    
C2    C14   S    
C4    C17   S    
C16   C18   S    
Cu1   O4    S    
C17   C19   S    
C9    C16   S    
C11   H6    S    
C5    C11   S    
Cu2   O7    S    
C18   C20   S    
C6    C12   S    
C5    C6    D    
C4    F2    S    
C1    C5    S    
C9    H17   S    
C8    C19   S    
F4    N2    S    
C10   C17   S    
Cu1   N2    S    
C15   O8    A    
F3    N1    S    
Cu2   O2    S    
C11   H7    S    
C14   O7    A    
C7    H1    S    
C8    H15   S    
C13   H10   S    
Cu2   O6    S    
Cu2   N1    S    
C10   H2    S    
C1    O1    A    
C9    H18   S    
C8    H14   S    
C15   C20   S    
C2    C19   S    
N1    N2    D    
C1    O3    A    
C7    H12   S    
C13   H9    S    
C3    C16   S    
C12   O4    A    
Cu1   O1    S    
