data_mof_unit_15175.cif
_audit_creation_date              2013-03-05T16:33:12-0500
_audit_creation_method            fapswitch 2.2
_symmetry_space_group_name_H-M    P1
_symmetry_Int_Tables_number       1
_space_group_crystal_system       triclinic
_cell_length_a                    27.748754
_cell_length_b                    10.904791
_cell_length_c                    9.551229
_cell_angle_alpha                 91.523844
_cell_angle_beta                  89.055879
_cell_angle_gamma                 91.331911
_cell_volume                      2887.98164564

loop_
_atom_site_label
_atom_site_type_symbol
_atom_site_description
_atom_site_fract_x
_atom_site_fract_y
_atom_site_fract_z
_atom_type_partial_charge
O1    O     O_R   0.500000 0.319640 0.618810 -0.546095
O2    O     O_R   0.500010 0.319680 0.381230 -0.603111
C1    C     C_R   0.498486 0.262141 0.497736 0.808580
O3    O     O_R   0.430260 0.500000 0.618780 -0.508098
O4    O     O_R   0.430270 0.500040 0.381190 -0.598460
C2    C     C_R   0.407441 0.499587 0.500900 0.867459
Cu1   Cu    Cu3+1 0.500000 0.499980 0.640670 1.012546
Cu2   Cu    Cu3+1 0.500000 0.500020 0.359330 0.939910
O5    O     O_R   0.499990 0.680320 0.618770 -0.558317
O6    O     O_R   0.500000 0.680360 0.381190 -0.599140
O7    O     O_R   0.569730 0.499960 0.618810 -0.585319
O8    O     O_R   0.569740 0.500000 0.381220 -0.589616
C3    C     C_R   0.499817 0.737458 0.501550 0.823671
C4    C     C_R   0.592526 0.498489 0.499078 0.784705
C5    C     C_R   0.176686 0.397061 0.560792 0.584473
O9    O     O_2   0.200860 0.300695 0.607549 -0.501147
N1    N     N_R   0.201571 0.495924 0.508412 -0.454927
C6    C     C_R   0.178240 0.594708 0.458906 0.606020
C7    C     C_R   0.278683 0.471534 0.379679 0.443001
C8    C     C_R   0.329002 0.473115 0.378646 -0.255776
C9    C     C_R   0.328672 0.521888 0.628024 -0.108852
C10   C     C_R   0.278434 0.520747 0.629168 -0.148834
C11   C     C_R   0.253245 0.495985 0.505390 0.260296
C12   C     C_R   0.101393 0.496719 0.516821 -0.046108
C13   C     C_R   0.126089 0.395166 0.565099 -0.026296
C14   C     C_R   0.099788 0.294274 0.615916 -0.127919
C15   C     C_R   0.127697 0.596769 0.461567 -0.032195
C16   C     C_R   0.354393 0.498311 0.502675 -0.113377
H1    H     H_    0.347319 0.542265 0.724903 0.218933
H2    H     H_    0.258957 0.539605 0.726275 0.181123
H3    H     H_    0.117870 0.215707 0.655704 0.190412
C17   C     C_R   0.645527 0.495907 0.497463 -0.056447
C18   C     C_R   0.973132 0.388537 0.550704 0.056626
C19   C     C_R   0.975448 0.610388 0.504398 0.009813
C20   C     C_R   0.949011 0.498799 0.523582 0.040164
C21   C     C_R   0.945533 0.278584 0.562090 -0.213360
C22   C     C_R   0.895640 0.277806 0.550885 -0.153957
C23   C     C_R   0.871480 0.386666 0.529394 -0.006659
C24   C     C_R   0.898075 0.497642 0.517297 -0.050382
C25   C     C_R   0.873639 0.607497 0.499638 -0.044758
C26   C     C_R   0.823175 0.603981 0.489926 0.529881
N2    N     N_R   0.798143 0.494961 0.499458 -0.469485
C27   C     C_R   0.821067 0.387507 0.520455 0.515373
C28   C     C_R   0.721786 0.463004 0.370946 0.124693
C29   C     C_R   0.670967 0.462288 0.374504 -0.237120
C30   C     C_R   0.670944 0.526967 0.619341 -0.228352
C31   C     C_R   0.720969 0.526158 0.618157 -0.142073
C32   C     C_R   0.746502 0.494482 0.495549 0.332662
O10   O     O_2   0.795089 0.282127 0.533386 -0.547420
C33   C     C_R   0.023990 0.391719 0.563694 0.044828
C34   C     C_R   0.050337 0.497665 0.522041 0.071423
C35   C     C_R   0.026040 0.603770 0.482417 0.024852
C36   C     C_R   0.049626 0.292036 0.614231 -0.212309
H4    H     H_    0.650730 0.435258 0.282755 0.145170
H5    H     H_    0.876050 0.191137 0.559296 0.183371
H6    H     H_    0.961753 0.190734 0.574989 0.136848
H7    H     H_    0.031662 0.212319 0.656559 0.141503
O11   O     O_2   0.203915 0.690635 0.407779 -0.498131
C37   C     C_R   0.102919 0.694043 0.405712 -0.133494
H8    H     H_    0.348141 0.453586 0.281071 0.190496
H9    H     H_    0.122082 0.768162 0.353916 0.192915
C38   C     C_R   0.949908 0.723037 0.513281 0.077449
C39   C     C_R   0.899571 0.719008 0.501219 -0.185431
O12   O     O_2   0.799228 0.708550 0.471689 -0.547746
C40   C     C_R   0.052804 0.695671 0.412868 -0.200964
H10   H     H_    0.652210 0.552666 0.715619 0.152541
H11   H     H_    0.880203 0.804172 0.501141 0.182826
H12   H     H_    0.740191 0.550780 0.712947 0.140738
H13   H     H_    0.035262 0.765013 0.355251 0.146723
C41   C     C_R   0.507043 0.068638 0.617828 0.010576
C42   C     C_R   0.499180 0.128319 0.492602 -0.083457
C43   C     C_R   0.493723 0.056133 0.366876 0.089789
C44   C     C_R   0.496362 0.928754 0.373793 -0.239567
H14   H     H_    0.490550 0.874017 0.279190 0.160968
C45   C     C_R   0.501135 0.870504 0.501504 -0.066409
C46   C     C_R   0.507543 0.942080 0.623271 0.017201
C47   C     C_3   0.479817 0.942690 0.759670 0.214534
C48   C     C_3   0.479359 0.081062 0.752645 -0.426051
H15   H     H_    0.500870 0.912992 0.849622 0.086454
H16   H     H_    0.442935 0.118644 0.738254 0.268612
H17   H     H_    0.500942 0.128277 0.835960 0.165462
C49   C     C_R   0.538780 0.547783 0.072870 0.199743
N3    N     N_R   0.500300 0.500930 0.147930 -0.218929
C50   C     C_R   0.464659 0.441302 0.075442 -0.122901
H18   H     H_    0.435590 0.396156 0.131982 0.174361
C51   C     C_R   0.464635 0.440102 0.927353 0.443449
N4    N     N_R   0.500310 0.500890 0.852020 -0.204895
C52   C     C_R   0.538636 0.546559 0.925351 0.158667
C53   C     C_3   0.558685 0.672887 0.916784 -0.521656
C54   C     C_3   0.558448 0.678140 0.076631 -0.126258
H19   H     H_    0.594745 0.673765 0.864497 0.180376
H20   H     H_    0.532753 0.734810 0.870803 0.208302
H21   H     H_    0.531842 0.744339 0.119685 0.174297
Cl1   Cl    Cl    0.248206 0.436838 0.222973 -0.552272
C55   C     C_3   0.972476 0.845270 0.563576 -0.408605
C56   C     C_3   0.995940 0.834084 0.707152 -0.314729
C57   C     C_3   0.016877 0.957151 0.759529 -0.843198
H22   H     H_    0.045422 0.990166 0.685870 0.255752
H23   H     H_    0.988122 0.026164 0.769682 0.245805
H24   H     H_    0.033088 0.946286 0.863855 0.254702
H25   H     H_    0.968509 0.800948 0.784348 0.222599
H26   H     H_    0.025500 0.767246 0.701025 0.234575
H27   H     H_    0.998196 0.885110 0.487302 0.192972
H28   H     H_    0.944260 0.915805 0.575708 0.189090
C58   C     C_3   0.476701 0.104174 0.228800 -0.399346
C59   C     C_3   0.422737 0.133512 0.239168 -0.358619
C60   C     C_3   0.398773 0.119786 0.096940 -0.714529
H29   H     H_    0.362472 0.160573 0.102084 0.274089
H30   H     H_    0.421069 0.166239 0.016427 0.277081
H31   H     H_    0.394931 0.021129 0.066117 0.276472
H32   H     H_    0.403519 0.070227 0.311831 0.251546
H33   H     H_    0.418222 0.228356 0.281599 0.222056
H34   H     H_    0.498749 0.183311 0.192213 0.208937
H35   H     H_    0.482125 0.033494 0.144038 0.187296
Cl2   Cl    Cl    0.420862 0.873435 0.747920 -0.585346
Cl3   Cl    Cl    0.417142 0.358218 0.846722 -0.657025
C61   C     C_3   0.609789 0.694383 0.136733 -0.351474
C62   C     C_3   0.610474 0.777616 0.268765 -0.367038
C63   C     C_3   0.661883 0.805265 0.316794 -0.791931
H36   H     H_    0.680657 0.719084 0.337588 0.272694
H37   H     H_    0.682437 0.856434 0.235468 0.255776
H38   H     H_    0.660956 0.862358 0.414771 0.247791
H39   H     H_    0.593126 0.865892 0.247234 0.215128
H40   H     H_    0.590256 0.732791 0.354853 0.234756
H41   H     H_    0.624793 0.604013 0.160183 0.195111
H42   H     H_    0.634344 0.737467 0.058039 0.200476
C64   C     C_3   0.750836 0.432599 0.238349 -0.384601
C65   C     C_3   0.721385 0.409059 0.104931 -0.395875
C66   C     C_3   0.754228 0.384275 0.978004 -0.799253
H43   H     H_    0.778155 0.465294 0.958328 0.248509
H44   H     H_    0.776635 0.303115 0.995302 0.262779
H45   H     H_    0.731950 0.365526 0.883981 0.251343
H46   H     H_    0.696973 0.327825 0.118494 0.226885
H47   H     H_    0.699559 0.490571 0.083941 0.214716
H48   H     H_    0.776477 0.510463 0.219109 0.208414
H49   H     H_    0.772291 0.349990 0.257054 0.223471

loop_
_geom_bond_atom_site_label_1
_geom_bond_atom_site_label_2
_geom_bond_distance
_ccdc_geom_bond_type
N4    C52   1.360518 A    
C28   C64   1.523178 S    
C56   H26   1.109688 S    
C41   C48   1.493159 S    
Cu2   N3    2.019298 S    
C44   C45   1.399779 A    
C26   N2    1.367275 A    
C1    C42   1.459378 S    
C55   C56   1.536663 S    
C12   C15   1.408023 A    
C65   C66   1.526737 S    
C57   H22   1.110774 S    
Cu1   Cu2   2.687153 S    
C59   H33   1.109817 S    
C47   C48   1.512543 S    
C55   H28   1.112813 S    
Cu1   O7    1.942734 S    
N1    C11   1.433692 S    
C25   C39   1.398354 A    
N3    C50   1.359769 A    
C58   H34   1.107069 S    
C21   C22   1.390166 A    
C50   C51   1.414156 A    
C30   H10   1.082450 S    
C23   C24   1.409110 A    
O7    C4    1.297637 A    
C49   C52   1.408769 A    
C5    C13   1.403611 A    
C59   C60   1.524563 S    
C5    O9    1.349560 S    
C19   C38   1.432289 A    
C18   C21   1.413330 A    
C51   Cl3   1.751967 S    
C19   C20   1.420693 A    
C44   H14   1.081835 S    
O5    C3    1.295820 A    
C62   C63   1.526624 S    
C6    O11   1.349581 S    
C2    C16   1.471583 S    
C3    C45   1.450459 S    
C38   C55   1.528619 S    
C60   H29   1.110378 S    
C41   C42   1.399407 A    
C64   H49   1.111253 S    
C8    H8    1.083669 S    
C61   H42   1.112182 S    
C66   H45   1.110437 S    
C52   C53   1.477421 S    
C12   C34   1.417066 A    
C47   H15   1.106548 S    
C14   H3    1.083403 S    
C56   H25   1.111963 S    
C60   H30   1.105089 S    
C65   H46   1.111627 S    
O3    Cu1   1.949890 S    
C57   H23   1.110823 S    
C55   H27   1.101863 S    
N1    C6    1.368469 A    
C59   H32   1.112862 S    
C63   H37   1.110698 S    
C39   H11   1.083779 S    
C37   H9    1.083230 S    
C33   C36   1.412732 A    
C34   C35   1.415817 A    
C54   C61   1.549311 S    
C58   H35   1.113699 S    
C12   C13   1.407641 A    
O3    C2    1.300646 A    
C24   C25   1.405559 A    
C36   H7    1.076803 S    
C51   N4    1.381471 A    
C27   O10   1.349656 S    
N2    C32   1.433956 S    
C8    C16   1.405865 A    
C18   C33   1.418260 A    
C9    H1    1.082966 S    
O1    C1    1.301540 A    
C20   C24   1.415424 A    
C45   C46   1.394826 A    
C22   C23   1.398309 A    
C21   H6    1.078714 S    
C65   H47   1.111570 S    
C31   C32   1.398270 A    
Cu2   O8    1.949884 S    
C56   C57   1.525266 S    
C38   C39   1.402993 A    
C33   C34   1.415315 A    
C17   C29   1.404915 A    
C62   H40   1.105975 S    
C50   H18   1.079809 S    
C53   H20   1.102464 S    
C7    Cl1   1.759339 S    
C25   C26   1.404455 A    
C9    C16   1.404589 A    
O8    C4    1.300832 A    
C29   H4    1.079321 S    
C41   C46   1.382843 A    
C60   H31   1.110989 S    
C53   H19   1.110898 S    
N2    C27   1.367211 A    
C64   C65   1.537771 S    
C14   C36   1.391950 A    
C31   H12   1.082861 S    
C57   H24   1.110326 S    
C28   C29   1.409875 A    
C7    C11   1.405291 A    
C54   H21   1.110972 S    
C66   H43   1.110909 S    
C63   H38   1.110385 S    
Cu1   O5    1.983192 S    
C30   C31   1.388242 A    
C10   H2    1.083115 S    
O1    Cu1   1.972093 S    
C17   C30   1.400802 A    
O2    Cu2   1.983194 S    
C6    C15   1.402997 A    
C4    C17   1.471430 S    
C43   C44   1.396047 A    
O6    C3    1.292731 A    
O4    Cu2   1.942737 S    
C63   H36   1.109110 S    
C5    N1    1.368239 A    
C58   C59   1.539528 S    
C19   C35   1.419254 A    
C49   C54   1.510526 S    
C9    C10   1.393668 A    
C7    C8    1.395862 A    
O2    C1    1.291551 A    
C13   C14   1.399310 A    
C42   C43   1.426448 A    
C15   C37   1.399521 A    
C61   C62   1.534143 S    
C37   C40   1.391674 A    
C46   C47   1.501973 S    
C48   H17   1.112025 S    
O4    C2    1.298043 A    
C40   H13   1.076855 S    
C18   C20   1.421452 A    
C48   H16   1.111399 S    
C62   H39   1.111774 S    
C64   H48   1.112155 S    
C22   H5    1.083463 S    
C23   C27   1.403151 A    
Cu1   N4    2.018573 S    
C43   C58   1.518409 S    
Cu2   O6    1.972092 S    
C49   N3    1.372604 A    
C10   C11   1.400227 A    
C26   O12   1.349746 S    
C53   C54   1.526201 S    
C47   Cl2   1.789784 S    
C61   H41   1.108389 S    
C35   C40   1.407731 A    
C28   C32   1.413783 A    
C66   H44   1.110811 S    
