data_mof_unit_64072.cif
_audit_creation_date              2013-03-05T16:28:11-0500
_audit_creation_method            fapswitch 2.2
_symmetry_space_group_name_H-M    P1
_symmetry_Int_Tables_number       1
_space_group_crystal_system       triclinic
_cell_length_a                    36.889931
_cell_length_b                    18.272854
_cell_length_c                    18.273869
_cell_angle_alpha                 90.000292
_cell_angle_beta                  119.829308
_cell_angle_gamma                 90.00276
_cell_volume                      10686.1136236

loop_
_atom_site_label
_atom_site_type_symbol
_atom_site_description
_atom_site_fract_x
_atom_site_fract_y
_atom_site_fract_z
_atom_type_partial_charge
O1    O     O_R   0.500010 0.060620 0.392670 -0.604626
O2    O     O_R   0.499990 0.939380 0.607330 -0.607161
O3    O     O_R   0.499990 0.060620 0.607330 -0.604820
O4    O     O_R   0.500010 0.939380 0.392670 -0.610223
O5    O     O_R   0.000010 0.560620 0.392670 -0.604933
O6    O     O_R   0.999990 0.439380 0.607330 -0.604700
O7    O     O_R   0.999990 0.560620 0.607330 -0.605747
O8    O     O_R   0.000010 0.439380 0.392670 -0.609935
C1    C     C_R   0.500050 1.000000 0.358821 0.919095
C2    C     C_R   0.499948 0.000000 0.641177 0.927242
C3    C     C_R   0.000050 0.500000 0.358821 0.918817
C4    C     C_R   0.999949 0.500000 0.641178 0.925692
O9    O     O_R   0.561430 0.060620 0.561430 -0.587830
O10   O     O_R   0.438570 0.939380 0.438570 -0.598086
O11   O     O_R   0.438570 0.060620 0.438570 -0.589732
O12   O     O_R   0.561430 0.939380 0.561430 -0.600596
O13   O     O_R   0.061430 0.560620 0.561430 -0.586421
O14   O     O_R   0.938570 0.439380 0.438570 -0.588592
O15   O     O_R   0.938570 0.560620 0.438570 -0.594114
O16   O     O_R   0.061430 0.439380 0.561430 -0.606525
C5    C     C_R   0.581094 0.000016 0.581103 0.879717
C6    C     C_R   0.418902 0.000007 0.418855 0.880935
C7    C     C_R   0.081096 0.500005 0.581156 0.880486
C8    C     C_R   0.918898 0.499998 0.418845 0.880046
Zn1   Zn    Zn3+2 0.500000 0.080950 0.500000 1.112125
Zn2   Zn    Zn3+2 0.500000 0.919050 0.500000 1.095857
Zn3   Zn    Zn3+2 0.000000 0.580950 0.500000 1.110515
Zn4   Zn    Zn3+2 0.000000 0.419050 0.500000 1.101134
C9    C     C_3   0.724557 0.072809 0.673467 0.093434
C10   C     C_3   0.274541 0.930760 0.327736 -0.014189
C11   C     C_3   0.275757 0.078370 0.318093 0.015551
C12   C     C_3   0.724159 0.925628 0.681637 -0.057450
C13   C     C_3   0.224236 0.568246 0.667780 0.073047
C14   C     C_3   0.775624 0.420690 0.310760 0.035970
C15   C     C_3   0.775389 0.566137 0.334430 0.057749
C16   C     C_3   0.225248 0.421944 0.690436 -0.010105
C17   C     C_3   0.775112 0.928978 0.725781 0.008411
C18   C     C_3   0.225515 0.084721 0.254588 -0.017706
C19   C     C_3   0.224202 0.943272 0.289605 -0.042424
C20   C     C_3   0.775361 0.075963 0.731969 -0.050391
C21   C     C_3   0.275453 0.431275 0.724884 -0.005483
C22   C     C_3   0.725377 0.575544 0.272166 -0.011252
C23   C     C_3   0.724656 0.425489 0.268284 -0.047075
C24   C     C_3   0.274480 0.577221 0.729404 -0.010902
C25   C     C_1   0.874714 0.999958 0.874130 0.033465
C26   C     C_1   0.125292 0.001214 0.126055 -0.001931
C27   C     C_1   0.374709 0.501046 0.873957 -0.002757
C28   C     C_1   0.625310 0.500819 0.126026 -0.013818
C29   C     C_3   0.708493 0.001575 0.700391 -0.147260
C30   C     C_3   0.291492 0.001699 0.300469 -0.105114
C31   C     C_3   0.208571 0.500702 0.701484 -0.172485
C32   C     C_3   0.791455 0.499999 0.298994 -0.166630
C33   C     C_3   0.791428 0.000279 0.787490 -0.217429
C34   C     C_3   0.208568 0.003640 0.214276 -0.251802
C35   C     C_3   0.291427 0.502837 0.786201 -0.273933
C36   C     C_3   0.708633 0.501774 0.213563 -0.231734
C37   C     C_3   0.773897 0.998411 0.853211 0.388049
C38   C     C_3   0.226239 0.983859 0.151137 0.394324
C39   C     C_3   0.273980 0.500832 0.852153 0.385104
C40   C     C_3   0.726090 0.503380 0.147505 0.378433
C41   C     C_3   0.724938 0.005729 0.797513 -0.409030
C42   C     C_3   0.274678 0.996873 0.203322 -0.430595
C43   C     C_3   0.225497 0.513141 0.797753 -0.386744
C44   C     C_3   0.774561 0.514978 0.202994 -0.410076
C45   C     C_1   0.837334 0.999990 0.835569 0.208183
C46   C     C_1   0.162658 0.002674 0.165186 0.127407
C47   C     C_1   0.337341 0.502254 0.834902 0.128200
C48   C     C_1   0.662690 0.501712 0.164990 0.130114
C49   C     C_1   0.662602 0.000754 0.658010 0.138083
C50   C     C_1   0.337385 0.000688 0.342495 0.239497
C51   C     C_1   0.162631 0.500369 0.658868 0.146089
C52   C     C_1   0.837353 0.500075 0.341516 0.208421
C53   C     C_1   0.625285 0.000178 0.623228 -0.033084
C54   C     C_1   0.374711 0.000136 0.376954 -0.012038
C55   C     C_1   0.125297 0.500074 0.623679 -0.044171
C56   C     C_1   0.874689 0.500006 0.376494 -0.011341
H1    H     H_    0.714494 0.057885 0.811268 0.259744
H2    H     H_    0.292209 0.957290 0.186942 0.260462
H3    H     H_    0.282340 0.048786 0.183032 0.257169
H4    H     H_    0.708385 0.965016 0.815276 0.254691
H5    H     H_    0.217947 0.569864 0.806464 0.257279
H6    H     H_    0.792261 0.486025 0.177692 0.258931
H7    H     H_    0.782148 0.572334 0.196836 0.257482
H8    H     H_    0.207971 0.481601 0.821726 0.260403
C57   C     C_1   0.500109 0.000000 0.282451 -0.131830
C58   C     C_1   0.499889 0.000000 0.717548 -0.125134
C59   C     C_1   0.000108 0.500000 0.282450 -0.129673
C60   C     C_1   0.999891 0.500000 0.717549 -0.126502
C61   C     C_1   0.500119 0.000000 0.217710 -0.135090
C62   C     C_1   0.499880 0.000000 0.782289 -0.129896
C63   C     C_1   0.000119 0.500000 0.217710 -0.132352
C64   C     C_1   0.999881 0.500000 0.782290 -0.131111
O17   O     O_R   0.000000 0.107140 0.939380 -0.608506
O18   O     O_R   0.000000 0.892860 0.060620 -0.606196
O19   O     O_R   0.000000 0.107140 0.060620 -0.604271
O20   O     O_R   0.000000 0.892860 0.939380 -0.603742
O21   O     O_R   0.500000 0.607140 0.939380 -0.605073
O22   O     O_R   0.500000 0.392860 0.060620 -0.608399
O23   O     O_R   0.500000 0.607140 0.060620 -0.604894
O24   O     O_R   0.500000 0.392860 0.939380 -0.605777
C65   C     C_R   0.000000 0.141049 0.000000 0.914404
C66   C     C_R   0.999997 0.858951 0.999997 0.924215
C67   C     C_R   0.499999 0.641049 1.000000 0.920160
C68   C     C_R   0.500002 0.358951 0.000001 0.911482
O25   O     O_R   0.938580 1.000000 0.877970 -0.588448
O26   O     O_R   0.061420 1.000000 0.122030 -0.589730
O27   O     O_R   0.438580 0.500000 0.877970 -0.587424
O28   O     O_R   0.561420 0.500000 0.122030 -0.590016
O29   O     O_R   0.938570 1.000000 0.999140 -0.589968
O30   O     O_R   0.061430 0.000000 0.000860 -0.591199
O31   O     O_R   0.438570 0.500000 0.999140 -0.590423
O32   O     O_R   0.561430 0.500000 0.000860 -0.589572
C69   C     C_R   0.918911 0.999967 0.918786 0.878155
C70   C     C_R   0.081093 0.999994 0.081233 0.875741
C71   C     C_R   0.418908 0.500010 0.918768 0.876159
C72   C     C_R   0.581098 0.500024 0.081235 0.875772
Zn5   Zn    Zn3+2 0.000010 1.000000 0.919080 1.115029
Zn6   Zn    Zn3+2 0.999990 0.000000 0.080920 1.115886
Zn7   Zn    Zn3+2 0.500010 0.500000 0.919080 1.111484
Zn8   Zn    Zn3+2 0.499990 0.500000 0.080920 1.107813
O33   O     O_R   0.534690 0.892630 0.034650 -0.607076
O34   O     O_R   0.465310 0.107370 0.965350 -0.603594
O35   O     O_R   0.465310 0.892630 0.965350 -0.606953
O36   O     O_R   0.534690 0.107370 0.034650 -0.606848
O37   O     O_R   0.034690 0.392630 0.034650 -0.606000
O38   O     O_R   0.965310 0.607370 0.965350 -0.602071
O39   O     O_R   0.965310 0.392630 0.965350 -0.608063
O40   O     O_R   0.034690 0.607370 0.034650 -0.606226
C73   C     C_R   0.499999 0.858766 0.999999 0.914143
C74   C     C_R   0.500001 0.141234 0.000001 0.915715
C75   C     C_R   0.999999 0.358766 1.000000 0.914416
C76   C     C_R   0.000001 0.641234 0.000001 0.915521
O41   O     O_R   0.534680 1.000000 0.141990 -0.605912
O42   O     O_R   0.465320 0.000000 0.858010 -0.600216
O43   O     O_R   0.034680 0.500000 0.141990 -0.603516
O44   O     O_R   0.965320 0.500000 0.858010 -0.603320
O45   O     O_R   0.465320 1.000000 0.072630 -0.606963
O46   O     O_R   0.534680 0.000000 0.927370 -0.608050
O47   O     O_R   0.965320 0.500000 0.072630 -0.607070
O48   O     O_R   0.034680 0.500000 0.927370 -0.607656
C77   C     C_R   0.500042 0.000000 0.141201 0.914588
C78   C     C_R   0.499957 0.000000 0.858799 0.915381
C79   C     C_R   0.000042 0.500000 0.141201 0.915599
C80   C     C_R   0.999957 0.500000 0.858799 0.915057
Zn9   Zn    Zn3+2 0.546310 0.000000 0.046300 1.083535
Zn10  Zn    Zn3+2 0.453690 0.000000 0.953700 1.091542
Zn11  Zn    Zn3+2 0.046310 0.500000 0.046300 1.088233
Zn12  Zn    Zn3+2 0.953690 0.500000 0.953700 1.087041
C81   C     C_1   0.999999 0.217518 1.000000 -0.132372
C82   C     C_1   0.999999 0.782482 0.999998 -0.122644
C83   C     C_1   0.499998 0.717518 0.999998 -0.133102
C84   C     C_1   0.500003 0.282482 0.000002 -0.133437
C85   C     C_1   0.499997 0.782294 0.999998 -0.136302
C86   C     C_1   0.500003 0.217706 0.000002 -0.134103
C87   C     C_1   0.999998 0.282294 0.999999 -0.135858
C88   C     C_1   0.000001 0.717706 0.000001 -0.128601
N1    N     N_R   0.794514 0.090265 0.678278 0.192314
O49   O     O_R   0.831400 0.065339 0.698855 -0.310945
O50   O     O_R   0.782401 0.148142 0.630171 -0.315372
N2    N     N_R   0.211782 0.969015 0.351957 0.215002
O51   O     O_R   0.234494 0.957245 0.432532 -0.359262
O52   O     O_R   0.172212 0.979661 0.325099 -0.275622
N3    N     N_R   0.204577 0.115885 0.299509 0.198774
O53   O     O_R   0.164200 0.111011 0.265853 -0.329623
O54   O     O_R   0.221595 0.172220 0.348577 -0.299247
N4    N     N_R   0.791552 0.933977 0.665661 0.245113
O55   O     O_R   0.769841 0.957064 0.588509 -0.346464
O56   O     O_R   0.830310 0.916317 0.691227 -0.269699
N5    N     N_R   0.295291 0.593855 0.679185 0.198740
O57   O     O_R   0.335614 0.587070 0.713502 -0.328522
O58   O     O_R   0.278357 0.642688 0.619519 -0.304738
N6    N     N_R   0.712530 0.420018 0.334547 0.136150
O59   O     O_R   0.680839 0.456521 0.327714 -0.299077
O60   O     O_R   0.720767 0.359174 0.377276 -0.345732
N7    N     N_R   0.703633 0.591984 0.320734 0.214213
O61   O     O_R   0.662977 0.589994 0.282657 -0.332770
O62   O     O_R   0.721067 0.637612 0.383744 -0.294075
N8    N     N_R   0.287204 0.440719 0.657884 0.216553
O63   O     O_R   0.263816 0.417696 0.581034 -0.314421
O64   O     O_R   0.326657 0.448051 0.681575 -0.285721
C89   C     C_2   0.708531 0.068833 0.578280 0.459775
H9    H     H_    0.728376 0.059122 0.551824 0.180186
O65   O     O_2   0.671486 0.078625 0.527913 -0.536273
C90   C     C_2   0.297867 0.914503 0.422575 0.556212
H10   H     H_    0.287050 0.869305 0.445352 0.173832
O66   O     O_2   0.329743 0.945936 0.473305 -0.552929
C91   C     C_2   0.288234 0.080428 0.411381 0.604830
H11   H     H_    0.266386 0.068951 0.432657 0.149121
O67   O     O_2   0.323938 0.096241 0.465064 -0.469919
C92   C     C_2   0.703678 0.908299 0.587390 0.561450
H12   H     H_    0.677573 0.939751 0.540623 0.076318
O68   O     O_2   0.713464 0.852947 0.563772 -0.456506
C93   C     C_2   0.211540 0.552833 0.575765 0.465926
H13   H     H_    0.233614 0.535306 0.557125 0.164983
O69   O     O_2   0.175307 0.561049 0.519816 -0.526199
C94   C     C_2   0.798961 0.400842 0.405777 0.518067
H14   H     H_    0.786531 0.410853 0.447189 0.112790
O70   O     O_2   0.834302 0.375458 0.439164 -0.488372
C95   C     C_2   0.786312 0.548452 0.424796 0.468117
H15   H     H_    0.763343 0.525490 0.438762 0.120887
O71   O     O_2   0.821839 0.557365 0.483408 -0.507642
C96   C     C_2   0.200176 0.394014 0.599681 0.581741
H16   H     H_    0.175439 0.425929 0.550250 0.052127
O72   O     O_2   0.206086 0.332451 0.581557 -0.394424
N9    N     N_R   0.708023 0.865308 0.713770 0.200716
O73   O     O_R   0.670128 0.840625 0.666515 -0.328322
O74   O     O_R   0.727656 0.842411 0.791290 -0.338209
N10   N     N_R   0.297275 0.143307 0.307573 0.272839
O75   O     O_R   0.290005 0.208004 0.327445 -0.229296
O76   O     O_R   0.324556 0.138457 0.282341 -0.338304
N11   N     N_R   0.283770 0.863128 0.293489 0.220681
O77   O     O_R   0.270012 0.799795 0.301683 -0.291707
O78   O     O_R   0.316965 0.860479 0.285676 -0.334332
N12   N     N_R   0.705488 0.142053 0.681657 0.282797
O79   O     O_R   0.712703 0.202810 0.653662 -0.235748
O80   O     O_R   0.677630 0.143729 0.705550 -0.328039
N13   N     N_R   0.216035 0.365567 0.738706 0.242612
O81   O     O_R   0.230968 0.299558 0.748086 -0.236014
O82   O     O_R   0.182233 0.371158 0.744073 -0.345408
N14   N     N_R   0.797307 0.636792 0.342209 0.283036
O83   O     O_R   0.790027 0.692713 0.377283 -0.222605
O84   O     O_R   0.824582 0.645177 0.317405 -0.333280
N15   N     N_R   0.788571 0.360919 0.272759 0.298167
O85   O     O_R   0.786321 0.293286 0.293151 -0.217456
O86   O     O_R   0.813448 0.373079 0.242788 -0.318854
N16   N     N_R   0.202735 0.638554 0.663602 0.283717
O87   O     O_R   0.209835 0.695817 0.630088 -0.228407
O88   O     O_R   0.175591 0.645150 0.689002 -0.325364
C97   C     C_2   0.793313 0.855493 0.769942 0.645142
H17   H     H_    0.775600 0.805554 0.743812 0.128761
O89   O     O_2   0.829754 0.848694 0.825023 -0.513220
C98   C     C_2   0.212692 0.139294 0.181525 0.601284
H18   H     H_    0.180252 0.156552 0.146266 0.103141
O90   O     O_2   0.236511 0.163038 0.158977 -0.465719
C99   C     C_2   0.200126 0.871079 0.258736 0.610475
H19   H     H_    0.179462 0.859432 0.193050 0.092525
O91   O     O_2   0.202027 0.825557 0.309586 -0.454839
C100  C     C_2   0.792086 0.141078 0.793818 0.592561
H20   H     H_    0.824878 0.155454 0.821206 0.082072
O92   O     O_2   0.771174 0.176540 0.816007 -0.449599
C101  C     C_2   0.299662 0.362116 0.770352 0.634347
H21   H     H_    0.320661 0.360201 0.837367 0.076169
O93   O     O_2   0.297360 0.307243 0.729947 -0.417584
C102  C     C_2   0.713175 0.642683 0.213398 0.586752
H22   H     H_    0.680540 0.658940 0.179190 0.107376
O94   O     O_2   0.737667 0.678051 0.200961 -0.465941
C103  C     C_2   0.699316 0.361191 0.209686 0.638430
H23   H     H_    0.666696 0.355990 0.192586 0.064691
O95   O     O_2   0.712824 0.315758 0.180616 -0.437229
C104  C     C_2   0.287394 0.643222 0.789656 0.594543
H24   H     H_    0.319887 0.660371 0.821411 0.103338
O96   O     O_2   0.263583 0.676555 0.805901 -0.470547
N17   N     N_R   0.790423 0.058500 0.916321 0.225245
O97   O     O_R   0.767896 0.083671 0.947500 -0.253813
O98   O     O_R   0.830549 0.069544 0.960633 -0.356288
N18   N     N_R   0.215739 0.907850 0.118998 0.200200
O99   O     O_R   0.244005 0.863447 0.121907 -0.263279
O100  O     O_R   0.176914 0.892165 0.065401 -0.343389
N19   N     N_R   0.209019 0.030603 0.074403 0.232189
O101  O     O_R   0.230499 0.038826 0.035956 -0.264312
O102  O     O_R   0.169149 0.044165 0.030567 -0.348283
N20   N     N_R   0.785509 0.930868 0.904702 0.249547
O103  O     O_R   0.762807 0.910954 0.937657 -0.250980
O104  O     O_R   0.824719 0.912252 0.946806 -0.288183
N21   N     N_R   0.291516 0.558996 0.917725 0.231816
O105  O     O_R   0.270203 0.580240 0.953242 -0.264597
O106  O     O_R   0.331448 0.572520 0.958437 -0.350855
N22   N     N_R   0.715935 0.435441 0.097000 0.239282
O107  O     O_R   0.744133 0.400152 0.088048 -0.243511
O108  O     O_R   0.676916 0.420134 0.044444 -0.320489
N23   N     N_R   0.708474 0.563204 0.084105 0.218625
O109  O     O_R   0.730348 0.588740 0.051618 -0.268813
O110  O     O_R   0.668334 0.574505 0.041726 -0.353210
N24   N     N_R   0.284423 0.431058 0.899767 0.198823
O111  O     O_R   0.256262 0.393960 0.907042 -0.268283
O112  O     O_R   0.323325 0.418266 0.955460 -0.337516

loop_
_geom_bond_atom_site_label_1
_geom_bond_atom_site_label_2
_geom_bond_distance
_ccdc_geom_bond_type
C38   C42   1.569627 S    
O23   C67   1.269271 A    
C102  O94   1.220598 D    
C74   C86   1.397364 S    
N20   O104  1.301065 A    
C92   H12   1.081377 S    
O20   C66   1.269272 A    
C19   N2    1.499638 S    
C19   C99   1.532556 S    
C99   O91   1.222887 D    
N5    O57   1.301287 A    
O28   Zn8   2.001543 S    
N15   O85   1.305318 A    
C52   C56   1.195699 T    
O25   Zn5   2.001543 S    
C15   N14   1.492106 S    
N14   O84   1.301934 A    
N8    O63   1.299284 A    
C15   C95   1.527015 S    
N7    O62   1.303003 A    
C9    C29   1.605461 S    
C89   H9    1.073935 S    
C102  H22   1.086150 S    
C27   C71   1.414621 S    
O13   C7    1.273955 A    
C9    C89   1.535374 S    
O26   C70   1.273077 A    
C37   N17   1.485847 S    
O14   C8    1.274097 A    
N15   O86   1.300589 A    
O25   C69   1.273252 A    
N3    O54   1.302953 A    
C57   C61   1.183254 T    
C26   C46   1.196450 T    
C59   C63   1.183254 T    
C22   N7    1.493173 S    
O8    C3    1.269063 A    
O6    C4    1.269060 A    
N17   O97   1.303015 A    
O44   C80   1.270666 A    
N12   O80   1.301572 A    
N8    O64   1.302623 A    
O11   Zn1   2.000687 S    
C19   C34   1.629303 S    
C12   C29   1.604495 S    
O46   Zn9   1.994930 S    
C104  O96   1.220713 D    
N23   O109  1.303016 A    
C39   N24   1.482435 S    
C5    C53   1.414817 S    
O24   C68   1.269272 A    
O7    Zn3   1.996387 S    
C90   H10   1.086184 S    
O48   Zn11  1.994930 S    
N24   O111  1.301430 A    
O27   Zn7   2.001543 S    
C37   C41   1.577043 S    
C15   C22   1.624710 S    
O37   C75   1.270969 A    
C24   N5    1.491592 S    
C21   C35   1.629635 S    
C20   C100  1.542709 S    
C14   C32   1.616269 S    
C1    C57   1.396665 S    
O23   Zn8   1.992625 S    
O5    Zn3   1.996384 S    
C25   C45   1.196388 T    
O47   C79   1.270481 A    
C61   C77   1.396705 S    
O11   C6    1.273886 A    
O6    Zn4   1.996384 S    
C60   C64   1.183254 T    
C73   C85   1.397367 S    
C23   C103  1.550778 S    
N10   O75   1.303204 A    
C93   O69   1.222676 D    
N18   O100  1.302745 A    
C50   C54   1.195838 T    
C99   H19   1.075591 S    
O35   Zn10  1.996910 S    
C38   N18   1.482448 S    
N16   O87   1.303125 A    
C33   C45   1.469572 S    
N21   O105  1.303011 A    
O30   C70   1.274148 A    
C31   C43   1.563203 S    
C67   C83   1.397312 S    
O39   Zn12  1.996910 S    
C28   C72   1.414990 S    
C22   C36   1.639288 S    
O43   C79   1.270668 A    
C10   C30   1.621566 S    
C13   C93   1.530535 S    
C95   H15   1.083605 S    
N1    O50   1.303932 A    
C29   C49   1.470252 S    
O35   C73   1.270977 A    
C83   C85   1.183639 T    
N4    O56   1.304684 A    
N5    O58   1.302975 A    
O9    Zn1   2.000727 S    
C16   C21   1.641822 S    
C16   C96   1.529813 S    
C40   N22   1.479619 S    
C64   C80   1.396705 S    
O40   C76   1.270985 A    
O30   Zn5   1.999628 S    
C27   C47   1.196393 T    
N14   O83   1.303195 A    
C31   C51   1.471586 S    
N6    O60   1.304651 A    
O29   Zn6   1.999628 S    
C63   C79   1.396703 S    
C103  O95   1.217837 D    
O19   Zn6   1.992625 S    
O12   Zn2   2.000684 S    
O7    C4    1.269063 A    
O42   Zn10  1.997022 S    
C100  O92   1.220909 D    
O47   Zn12  1.994930 S    
C29   C41   1.566063 S    
C96   H16   1.081106 S    
C39   N21   1.487501 S    
O9    C5    1.273765 A    
O13   Zn3   2.000727 S    
O1    C1    1.269060 A    
C20   N1    1.489889 S    
O3    Zn1   1.996387 S    
O14   Zn4   2.000730 S    
C94   O70   1.223051 D    
C13   N16   1.491745 S    
C58   C62   1.183256 T    
C89   O65   1.222869 D    
C3    C59   1.396667 S    
C10   N11   1.498937 S    
N17   O98   1.301957 A    
O38   Zn12  1.996866 S    
N12   O79   1.304051 A    
C8    C56   1.415294 S    
C18   C98   1.540303 S    
O16   Zn4   2.000684 S    
C104  H24   1.086149 S    
C36   C48   1.470982 S    
C28   C48   1.196630 T    
C36   C40   1.626700 S    
N1    O49   1.300537 A    
C21   C101  1.531944 S    
O31   Zn8   1.999628 S    
C101  O93   1.222843 D    
N2    O52   1.302593 A    
C12   C92   1.530601 S    
O21   Zn7   1.992621 S    
C17   C97   1.538229 S    
C44   H7    1.104879 S    
C97   H17   1.084989 S    
C32   C52   1.470303 S    
O37   Zn11  1.996868 S    
O42   C78   1.270667 A    
O20   Zn5   1.992627 S    
C35   C47   1.470164 S    
N11   O77   1.301862 A    
C18   C34   1.634115 S    
O16   C7    1.274058 A    
O38   C76   1.270964 A    
O4    C1    1.269064 A    
C103  H23   1.086563 S    
C4    C60   1.396667 S    
C44   H6    1.104711 S    
N18   O99   1.301283 A    
C98   O90   1.220740 D    
O45   C77   1.270481 A    
O36   C74   1.270976 A    
C68   C84   1.397314 S    
O2    Zn2   1.996384 S    
O24   Zn7   1.992627 S    
C62   C78   1.396703 S    
C12   C17   1.636804 S    
O10   Zn2   2.000730 S    
C49   C53   1.195295 T    
N21   O106  1.301606 A    
O27   C71   1.273065 A    
O44   Zn12  1.997022 S    
C16   C31   1.616778 S    
C96   O72   1.222506 D    
C66   C82   1.397311 S    
C24   C104  1.540081 S    
C18   N3    1.491810 S    
N11   O78   1.302406 A    
C84   C86   1.183641 T    
C20   C33   1.641678 S    
O43   Zn11  1.997022 S    
C32   C44   1.566265 S    
O5    C3    1.269062 A    
O46   C78   1.270485 A    
N4    O55   1.297621 A    
O8    Zn4   1.996387 S    
O33   Zn9   1.996868 S    
C39   C43   1.571284 S    
C30   C42   1.564796 S    
N13   O82   1.302524 A    
C6    C54   1.414953 S    
C11   C30   1.609204 S    
O17   C65   1.269272 A    
N19   O101  1.303013 A    
O2    C2    1.269061 A    
C35   C39   1.624770 S    
O32   C72   1.274171 A    
C7    C55   1.414949 S    
C14   N15   1.494401 S    
C95   O71   1.222638 D    
C34   C38   1.623316 S    
C14   C94   1.549344 S    
N23   O110  1.301651 A    
C41   H1    1.102853 S    
N9    O73   1.304743 A    
C100  H20   1.086519 S    
C2    C58   1.396665 S    
C92   O68   1.222550 D    
C43   H5    1.105147 S    
C13   C24   1.629112 S    
C10   C90   1.532540 S    
C37   N20   1.480289 S    
C42   H2    1.106163 S    
C14   C23   1.641170 S    
O48   C80   1.270484 A    
C26   C70   1.414682 S    
N22   O108  1.302771 A    
C94   H14   1.077781 S    
N19   O102  1.301642 A    
C33   C37   1.623084 S    
C16   N13   1.501024 S    
O32   Zn7   1.999628 S    
O4    Zn2   1.996387 S    
C23   N6    1.488363 S    
O1    Zn1   1.996384 S    
O12   C5    1.274195 A    
O22   Zn8   1.992623 S    
N20   O103  1.303126 A    
C34   C46   1.470352 S    
O29   C69   1.273847 A    
C21   N8    1.498252 S    
C13   C31   1.609530 S    
O36   Zn9   1.996909 S    
C43   H8    1.106252 S    
N16   O88   1.301943 A    
O17   Zn5   1.992621 S    
C11   C18   1.629592 S    
C38   N19   1.487698 S    
C40   C44   1.570520 S    
O45   Zn10  1.994930 S    
O10   C6    1.274180 A    
C75   C87   1.397365 S    
O15   C8    1.274108 A    
N13   O81   1.301476 A    
O33   C73   1.270972 A    
C17   C33   1.629750 S    
C11   N10   1.492252 S    
C97   O89   1.220510 D    
N7    O61   1.302585 A    
O40   Zn11  1.996909 S    
C51   C55   1.195546 T    
O18   Zn6   1.992623 S    
C24   C35   1.634046 S    
O28   C72   1.273216 A    
C9    N12   1.490958 S    
C30   C50   1.470662 S    
C17   N4    1.498659 S    
C101  H21   1.075760 S    
O22   C68   1.269272 A    
C9    C20   1.632639 S    
C65   C81   1.397312 S    
C98   H18   1.086146 S    
C76   C88   1.397365 S    
C22   C102  1.542775 S    
C90   O66   1.219640 D    
C10   C19   1.642880 S    
N24   O112  1.302683 A    
O34   Zn10  1.996866 S    
C40   N23   1.486829 S    
C81   C87   1.183641 T    
O21   C67   1.269271 A    
N2    O51   1.299604 A    
O39   C75   1.270979 A    
C42   H3    1.105199 S    
C91   O67   1.222786 D    
N3    O53   1.301355 A    
C82   C88   1.183641 T    
N6    O59   1.296954 A    
C25   C69   1.414423 S    
C23   C36   1.644528 S    
C91   H11   1.075352 S    
O41   Zn9   1.997022 S    
N22   O107  1.301518 A    
O18   C66   1.269271 A    
N10   O76   1.301898 A    
C93   H13   1.075954 S    
C11   C91   1.529319 S    
C15   C32   1.616491 S    
O3    C2    1.269062 A    
O31   C71   1.274132 A    
O41   C77   1.270668 A    
C41   H4    1.108537 S    
C12   N9    1.503891 S    
N9    O74   1.298340 A    
O34   C74   1.270971 A    
O26   Zn6   2.001543 S    
O19   C65   1.269270 A    
O15   Zn3   2.000687 S    
