data_mof_unit_34814.cif
_audit_creation_date              2012-12-10T17:05:11-0500
_audit_creation_method            fapswitch 2.2
_symmetry_space_group_name_H-M    P1
_symmetry_Int_Tables_number       1
_space_group_crystal_system       triclinic
_cell_length_a                    10.771626
_cell_length_b                    10.933074
_cell_length_c                    9.925941
_cell_angle_alpha                 109.910728
_cell_angle_beta                  99.370614
_cell_angle_gamma                 91.448598
_cell_volume                      1080.29335867

loop_
_atom_site_label
_atom_site_type_symbol
_atom_type_description
_atom_site_fract_x
_atom_site_fract_y
_atom_site_fract_z
_atom_type_partial_charge
C1    C     C_R   0.491446 0.254104 0.442259 0.768547
C2    C     C_3   0.879114 0.504319 0.504683 -0.079677
C3    C     C_3   0.942326 0.651541 0.573037 -0.136489
C4    C     C_3   0.904523 0.444572 0.343431 0.007204
C5    C     C_2   0.489254 0.114155 0.414944 -0.170343
C6    C     C_2   0.435110 0.068418 0.503682 -0.196092
C7    C     C_2   0.502036 0.886503 0.584504 -0.148439
C8    C     C_2   0.425442 0.930871 0.489733 0.060908
C9    C     C_2   0.516864 0.507222 0.082956 0.387239
C10   C     C_2   0.499593 0.481222 0.920774 0.230019
C11   C     C_R   0.260367 0.499855 0.499981 0.818941
C12   C     C_R   0.503614 0.745861 0.557408 0.796098
C13   C     C_R   0.739908 0.499893 0.500652 0.763656
C14   C     C_3   0.083121 0.408891 0.577763 -0.496299
C15   C     C_3   0.942016 0.415558 0.589317 -0.131964
C16   C     C_3   0.090910 0.645604 0.583102 -0.178214
C17   C     C_3   0.047408 0.454231 0.343507 -0.403712
C18   C     C_3   0.122937 0.502760 0.502104 -0.017160
Cu1   Cu    Cu3+1 0.522160 0.521810 0.644910 0.986541
Cu2   Cu    Cu3+1 0.477840 0.478190 0.355090 1.000287
H1    H     H_    0.143734 0.431141 0.686714 0.169630
H2    H     H_    0.860982 0.502684 0.278561 0.180154
H3    H     H_    0.126049 0.706459 0.525869 0.242831
H4    H     H_    0.389514 0.133376 0.586738 0.159684
H5    H     H_    0.099530 0.307139 0.513214 0.176890
H6    H     H_    0.895001 0.314894 0.534581 0.193799
H7    H     H_    0.068889 0.523535 0.288431 0.209605
H8    H     H_    0.077310 0.358224 0.279251 0.176716
N1    N     N_2   0.444530 0.445420 0.137360 -0.115538
N2    N     N_2   0.555520 0.554510 0.862630 -0.266563
O1    O     O_R   0.511820 0.332340 0.577400 -0.564797
O2    O     O_R   0.474400 0.295500 0.332650 -0.582208
O3    O     O_R   0.336400 0.518400 0.622370 -0.596791
O4    O     O_R   0.298980 0.481560 0.377620 -0.571426
O5    O     O_R   0.525600 0.704500 0.667350 -0.591351
O6    O     O_R   0.488180 0.667660 0.422600 -0.530791
O7    O     O_R   0.701020 0.518440 0.622380 -0.588401
O8    O     O_R   0.663600 0.481600 0.377630 -0.539317
C19   C     C_2   0.887026 0.726559 0.474805 0.434191
H9    H     H_    0.787201 0.742008 0.464500 0.071132
O9    O     O_2   0.950362 0.769804 0.406997 -0.529956
C20   C     C_2   0.323799 0.849445 0.369026 0.443367
H10   H     H_    0.293163 0.880260 0.276736 0.091610
O10   O     O_2   0.268370 0.753035 0.374195 -0.561997
C21   C     C_2   0.596293 0.972601 0.711764 0.410571
H11   H     H_    0.647814 0.931274 0.787098 0.092454
O11   O     O_2   0.620553 0.087947 0.733011 -0.514120
C22   C     C_2   0.553723 0.033072 0.298052 0.427921
H12   H     H_    0.576142 0.070870 0.216132 0.101733
O12   O     O_2   0.587629 0.926832 0.295397 -0.539973
N3    N     N_3   0.436517 0.356600 0.831134 -0.556534
H13   H     H_    0.504257 0.294052 0.792732 0.290156
H14   H     H_    0.368094 0.365117 0.748483 0.247365
N4    N     N_3   0.629792 0.580541 0.175608 -0.561082
H15   H     H_    0.704910 0.562977 0.118766 0.175129
H16   H     H_    0.616103 0.679676 0.209000 0.261511
C23   C     C_2   0.588020 0.688962 0.946235 0.559462
H17   H     H_    0.680911 0.733167 0.952032 0.034621
O13   O     O_2   0.509141 0.757223 0.002358 -0.537046
N5    N     N_3   0.321204 0.406397 0.062485 -0.484222
H18   H     H_    0.291736 0.324654 0.084719 0.250263
H19   H     H_    0.265397 0.480725 0.108662 0.242803
C24   C     C_2   0.927555 0.452107 0.747184 0.387277
H20   H     H_    0.981210 0.536777 0.830570 0.043602
O14   O     O_2   0.858389 0.383515 0.783590 -0.502540
C25   C     C_2   0.166470 0.702014 0.737650 0.500254
H21   H     H_    0.154711 0.658120 0.817949 0.051014
O15   O     O_2   0.241833 0.797770 0.773132 -0.494271
C26   C     C_2   0.908896 0.729539 0.720944 0.231284
H22   H     H_    0.855324 0.685963 0.778296 0.095445
O16   O     O_2   0.942417 0.846125 0.778645 -0.495570
N6    N     N_3   0.847243 0.309511 0.268885 -0.568930
H23   H     H_    0.841819 0.286304 0.156634 0.250982
H24   H     H_    0.904642 0.243566 0.298091 0.228913

loop_
_geom_bond_atom_site_label_1
_geom_bond_atom_site_label_2
_ccdc_geom_bond_type
C25   O15   D    
C24   O14   D    
C11   C18   S    
C11   O3    A    
C6    C8    S    
C12   O6    A    
C4    H2    S    
C9    C10   S    
C14   C18   S    
C2    C4    S    
Cu1   Cu2   S    
N1    N5    S    
C9    N1    D    
Cu2   O4    S    
Cu1   O1    S    
C22   O12   D    
C17   C18   S    
C23   H17   S    
C6    H4    S    
C7    C8    D    
C19   O9    D    
Cu1   O5    S    
C21   H11   S    
C12   O5    A    
C2    C15   S    
Cu1   N2    S    
C13   O8    A    
C5    C6    D    
C20   O10   D    
C1    C5    S    
C4    C17   S    
C7    C21   S    
C14   H1    S    
C16   C18   S    
C22   H12   S    
C3    C26   S    
C8    C20   S    
C25   H21   S    
C16   H3    S    
C2    C3    S    
Cu2   N1    S    
C21   O11   D    
C1    O1    A    
N5    H19   S    
C26   H22   S    
C5    C22   S    
N4    H16   S    
C7    C12   S    
C23   O13   D    
C16   C25   S    
C20   H10   S    
C10   N3    S    
C3    C19   S    
C24   H20   S    
C17   H7    S    
N2    C23   S    
C4    N6    S    
Cu2   O8    S    
C14   H5    S    
N6    H24   S    
Cu2   O2    S    
C19   H9    S    
C26   O16   D    
C2    C13   S    
C10   N2    D    
C14   C15   S    
N6    H23   S    
C15   H6    S    
C15   C24   S    
C9    N4    S    
Cu1   O7    S    
N4    H15   S    
C17   H8    S    
C13   O7    A    
C3    C16   S    
C11   O4    A    
C1    O2    A    
N3    H13   S    
Cu1   O3    S    
N5    H18   S    
N3    H14   S    
Cu2   O6    S    
