data_mof_unit_34972.cif
_audit_creation_date              2012-12-11T16:29:35-0500
_audit_creation_method            fapswitch 2.2
_symmetry_space_group_name_H-M    P1
_symmetry_Int_Tables_number       1
_space_group_crystal_system       triclinic
_cell_length_a                    6.953537
_cell_length_b                    17.371395
_cell_length_c                    18.696283
_cell_angle_alpha                 106.336454
_cell_angle_beta                  89.642525
_cell_angle_gamma                 90.46941
_cell_volume                      2167.10401419

loop_
_atom_site_label
_atom_site_type_symbol
_atom_type_description
_atom_site_fract_x
_atom_site_fract_y
_atom_site_fract_z
_atom_type_partial_charge
O1    O     O_R   0.494360 0.415680 0.413760 -0.531811
O2    O     O_R   0.818810 0.432910 0.557230 -0.529255
O3    O     O_R   0.994290 0.584320 0.586240 -0.533080
C1    C     C_R   0.649783 0.416001 0.580646 0.714009
O4    O     O_R   0.823740 0.406440 0.412520 -0.534333
O5    O     O_R   0.999250 0.557660 0.440500 -0.521723
C2    C     C_R   0.654941 0.383713 0.384852 0.697630
O6    O     O_R   0.489400 0.442340 0.559500 -0.520084
O7    O     O_3   0.662500 0.549650 0.509350 -0.361245
V1    V     V_3+5 0.935340 0.490790 0.498270 1.414864
O8    O     O_R   0.329270 0.567090 0.442770 -0.529672
C3    C     C_R   0.161189 0.584307 0.419617 0.712750
O9    O     O_R   0.324340 0.593560 0.587480 -0.535429
C4    C     C_R   0.155208 0.615901 0.615390 0.698892
V2    V     V_3+5 0.435970 0.509210 0.501730 1.410737
O10   O     O_3   0.158940 0.450350 0.490650 -0.357929
C5    C     C_R   0.029347 0.593906 0.756155 -0.141912
C6    C     C_R   0.968007 0.581233 0.823031 -0.121120
C7    C     C_R   0.957476 0.645134 0.887261 -0.118675
C8    C     C_R   0.007822 0.722232 0.885083 -0.131610
C9    C     C_R   0.068495 0.737221 0.817787 0.069065
C10   C     C_R   0.079929 0.671658 0.751988 0.066155
C11   C     C_R   0.120906 0.815629 0.815623 -0.178909
C12   C     C_R   0.184373 0.828370 0.747428 0.068450
C13   C     C_R   0.194779 0.762901 0.681664 0.056972
C14   C     C_R   0.144032 0.684429 0.684024 -0.177868
C15   C     C_R   0.234010 0.905964 0.742875 -0.161093
C16   C     C_R   0.291568 0.918835 0.675554 -0.159999
C17   C     C_R   0.300250 0.855024 0.610368 0.059077
C18   C     C_R   0.251334 0.777744 0.613898 -0.173069
H1    H     H_    0.037582 0.541946 0.708068 0.105070
H2    H     H_    0.929609 0.521371 0.825097 0.117993
H3    H     H_    0.911053 0.634874 0.939212 0.116396
H4    H     H_    0.999717 0.769590 0.936866 0.100600
H5    H     H_    0.227581 0.957828 0.791117 0.111159
H6    H     H_    0.330080 0.979083 0.674617 0.117866
H7    H     H_    0.253014 0.729660 0.562520 0.098416
C19   C     C_1   0.111690 0.864606 0.133233 -0.179644
C20   C     C_1   0.119311 0.822444 0.177168 0.006579
C21   C     C_1   0.128885 0.772557 0.229346 -0.008239
C22   C     C_1   0.136951 0.730303 0.273188 -0.001681
C23   C     C_1   0.146242 0.679840 0.324857 0.002352
C24   C     C_1   0.153552 0.636858 0.368071 -0.219437
C25   C     C_1   0.641153 0.364009 0.632615 -0.219664
C26   C     C_1   0.637026 0.321360 0.676150 -0.005580
C27   C     C_1   0.633729 0.271071 0.728001 -0.006527
C28   C     C_1   0.631284 0.228724 0.771815 -0.006529
C29   C     C_1   0.628001 0.178499 0.823722 -0.005703
C30   C     C_1   0.623894 0.135934 0.867331 -0.217533
H8    H     H_    0.765174 0.137141 0.452443 0.122794
C31   C     C_R   0.577943 0.406174 0.240867 -0.142448
C32   C     C_R   0.541780 0.419505 0.172169 -0.119586
C33   C     C_R   0.532228 0.355300 0.108207 -0.118740
C34   C     C_R   0.557992 0.277301 0.112543 -0.132968
C35   C     C_R   0.593198 0.261606 0.181736 0.071264
C36   C     C_R   0.604241 0.327533 0.247051 0.068661
C37   C     C_R   0.618250 0.181925 0.186123 -0.196721
C38   C     C_R   0.652941 0.167648 0.256883 0.025331
C39   C     C_R   0.670812 0.235143 0.321598 0.069421
C40   C     C_R   0.644263 0.314389 0.316713 -0.177918
C41   C     C_R   0.668434 0.088856 0.267061 -0.038708
C42   C     C_R   0.711103 0.079548 0.337170 -0.149425
C43   C     C_R   0.733656 0.145530 0.398494 -0.137313
C44   C     C_R   0.711672 0.222214 0.391333 -0.132191
H9    H     H_    0.585931 0.458291 0.288865 0.100258
H10   H     H_    0.522015 0.480040 0.168529 0.116874
H11   H     H_    0.505057 0.365945 0.054842 0.115952
H12   H     H_    0.550087 0.229729 0.060896 0.093958
H13   H     H_    0.724470 0.020230 0.344855 0.117098
H14   H     H_    0.726595 0.271289 0.441576 0.099519
O11   O     O_R   0.775690 0.057750 0.940570 -0.523811
O12   O     O_R   0.441200 0.093570 0.087490 -0.534244
O13   O     O_R   0.265840 0.942320 0.059480 -0.509756
C45   C     C_R   0.609571 0.115067 0.116172 0.724517
O14   O     O_R   0.446270 0.067110 0.942790 -0.531795
O15   O     O_R   0.270950 0.915660 0.913750 -0.534870
C46   C     C_R   0.615291 0.084034 0.919383 0.703194
O16   O     O_R   0.770580 0.084400 0.086300 -0.531150
O17   O     O_3   0.602640 0.950400 0.990690 -0.347809
V3    V     V_3+5 0.329740 0.009200 0.001730 1.445580
O18   O     O_R   0.940900 0.906360 0.912450 -0.537847
C47   C     C_R   0.110026 0.884075 0.884457 0.686975
O19   O     O_R   0.935830 0.932820 0.057160 -0.516724
C48   C     C_R   0.103895 0.916118 0.080759 0.722140
V4    V     V_3+5 0.829130 0.990680 0.998180 1.456269
O20   O     O_3   0.106100 0.049590 0.009310 -0.365522
C49   C     C_R   0.357152 0.868760 0.538078 0.087811
C50   C     C_R   0.289265 0.935954 0.518037 -0.129993
C51   C     C_R   0.339335 0.947618 0.449226 -0.115495
C52   C     C_R   0.457509 0.892571 0.399769 -0.094016
C53   C     C_R   0.526651 0.825908 0.419125 -0.103161
C54   C     C_R   0.477021 0.813912 0.487811 -0.130877
H15   H     H_    0.194773 0.978642 0.554945 0.106897
H16   H     H_    0.285572 0.999173 0.434061 0.116411
H17   H     H_    0.495203 0.901480 0.346390 0.113930
H18   H     H_    0.618603 0.783378 0.380825 0.116622
H19   H     H_    0.533496 0.762097 0.501828 0.110029
C55   C     C_1   0.632407 0.014822 0.209801 0.238556
N1    N     N_1   0.603257 0.954811 0.164880 -0.332654

loop_
_geom_bond_atom_site_label_1
_geom_bond_atom_site_label_2
_ccdc_geom_bond_type
C49   C50   A    
C11   C47   S    
C22   C23   S    
C41   C55   S    
C12   C15   A    
O17   V4    S    
C1    O6    A    
C49   C54   A    
O18   C47   A    
C52   C53   A    
C52   H17   S    
V4    O20   S    
C25   C26   T    
C39   C44   A    
C17   C18   A    
C16   C17   A    
C6    C7    A    
C3    C24   S    
O5    C3    A    
C19   C20   T    
C34   H12   S    
V2    O10   S    
C31   C36   A    
C31   H9    S    
C51   H16   S    
V3    O20   S    
C53   H18   S    
O11   V4    S    
O8    V2    S    
C28   C29   S    
C11   C12   A    
O1    V2    S    
C44   H14   S    
O7    V1    S    
O13   C48   A    
C8    H4    S    
C50   C51   A    
C38   C41   A    
C39   C40   A    
O9    C4    A    
H8    C43   S    
C54   H19   S    
C9    C11   A    
C31   C32   A    
C12   C13   A    
O12   C45   A    
C7    H3    S    
O15   C47   A    
C53   C54   A    
O4    C2    A    
C50   H15   S    
C1    C25   S    
C15   H5    S    
C13   C14   A    
C26   C27   S    
O17   V3    S    
C42   H13   S    
C37   C45   S    
O2    C1    A    
C42   C43   A    
O19   C48   A    
C35   C36   A    
C5    C6    A    
C27   C28   T    
C4    C14   S    
O14   C46   A    
C16   H6    S    
O3    C4    A    
O16   V4    S    
C21   C22   T    
O19   V4    S    
O6    V2    S    
C35   C37   A    
C10   C14   A    
C5    H1    S    
C6    H2    S    
C23   C24   T    
O2    V1    S    
C2    C40   S    
O11   C46   A    
C32   H10   S    
C32   C33   A    
O14   V3    S    
C13   C18   A    
C34   C35   A    
C29   C30   T    
C19   C48   S    
O1    C2    A    
O15   V3    S    
O5    V1    S    
O8    C3    A    
C33   C34   A    
C5    C10   A    
C7    C8    A    
O9    V2    S    
C38   C39   A    
O4    V1    S    
O12   V3    S    
O3    V1    S    
V1    O10   S    
C37   C38   A    
O13   V3    S    
C30   C46   S    
O7    V2    S    
C41   C42   A    
C33   H11   S    
C17   C49   S    
C43   C44   A    
C20   C21   S    
C36   C40   A    
C8    C9    A    
C18   H7    S    
C55   N1    T    
C45   O16   A    
C15   C16   A    
C51   C52   A    
C9    C10   A    
O18   V4    S    
