data_mof_unit_10549.cif
_audit_creation_date              2012-12-11T14:32:51-0500
_audit_creation_method            fapswitch 2.2
_symmetry_space_group_name_H-M    P1
_symmetry_Int_Tables_number       1
_space_group_crystal_system       triclinic
_cell_length_a                    6.951922
_cell_length_b                    13.78407
_cell_length_c                    17.916112
_cell_angle_alpha                 112.325334
_cell_angle_beta                  95.469442
_cell_angle_gamma                 90.248593
_cell_volume                      1579.37158222

loop_
_atom_site_label
_atom_site_type_symbol
_atom_type_description
_atom_site_fract_x
_atom_site_fract_y
_atom_site_fract_z
_atom_type_partial_charge
O1    O     O_R   0.484560 0.544530 0.414330 -0.536954
O2    O     O_R   0.197040 0.638810 0.585080 -0.540243
O3    O     O_R   0.026800 0.455470 0.585670 -0.541393
C1    C     C_R   0.373854 0.678307 0.610666 0.683806
O4    O     O_R   0.155000 0.556150 0.414940 -0.542732
O5    O     O_R   0.984450 0.372220 0.414320 -0.536300
C2    C     C_R   0.317645 0.564887 0.386497 0.760015
O6    O     O_R   0.526900 0.627780 0.585680 -0.539644
O7    O     O_3   0.339170 0.439750 0.499990 -0.373443
V1    V     V_3+5 0.064350 0.511180 0.500000 1.375730
O8    O     O_R   0.654880 0.361190 0.414920 -0.542069
C3    C     C_R   0.817027 0.324615 0.386406 0.761042
O9    O     O_R   0.696930 0.443850 0.585060 -0.540796
C4    C     C_R   0.873065 0.432795 0.611880 0.691139
V2    V     V_3+5 0.564340 0.488820 0.500000 1.377880
O10   O     O_3   0.839390 0.560250 0.500010 -0.375832
C5    C     C_R   0.041981 0.860352 0.822126 -0.054554
C6    C     C_R   0.905600 0.395791 0.678859 -0.049096
C7    C     C_R   0.920660 0.820737 0.682220 -0.125096
C8    C     C_R   0.971931 0.787759 0.745488 -0.154825
C9    C     C_R   0.056121 0.967569 0.835596 -0.176006
C10   C     C_R   0.999227 0.003803 0.772397 0.081211
C11   C     C_R   0.934011 0.927408 0.694773 0.120641
C12   C     C_R   0.002116 0.112600 0.783527 0.055099
C13   C     C_R   0.945767 0.142421 0.716178 0.073446
C14   C     C_R   0.886696 0.062422 0.640131 -0.179404
C15   C     C_R   0.880144 0.957515 0.630038 -0.218113
C16   C     C_R   0.053895 0.192716 0.860238 -0.173292
C17   C     C_R   0.053210 0.297665 0.870947 -0.196252
C18   C     C_R   0.007704 0.327760 0.805810 0.117511
C19   C     C_R   0.949315 0.251358 0.727425 0.092795
C20   C     C_R   0.019040 0.434724 0.819255 -0.145100
C21   C     C_R   0.969686 0.468282 0.756266 -0.143925
C22   C     C_R   0.897192 0.287984 0.664090 -0.216934
H1    H     H_    0.830870 0.899058 0.570650 0.116825
H2    H     H_    0.853118 0.235402 0.602613 0.091733
H3    H     H_    0.982690 0.551171 0.767932 0.091166
H4    H     H_    0.086405 0.356586 0.931504 0.119961
H5    H     H_    0.867688 0.762606 0.623299 0.138561
H6    H     H_    0.955472 0.705255 0.734673 0.092122
H7    H     H_    0.108814 0.020111 0.896103 0.133583
H8    H     H_    0.841634 0.078220 0.586867 0.120998
H9    H     H_    0.091636 0.177288 0.914208 0.151542
H10   H     H_    0.067436 0.492722 0.878866 0.133586
H11   H     H_    0.113830 0.224057 0.308201 0.153547
H12   H     H_    0.833940 0.035367 0.193070 0.164894
C23   C     C_2   0.135250 0.037625 0.183646 -0.328294
C24   C     C_2   0.972344 0.078307 0.216507 -0.096469
H13   H     H_    0.674857 0.178045 0.294505 0.129143
C25   C     C_2   0.812865 0.221296 0.318225 -0.338038
C26   C     C_2   0.975518 0.180971 0.284936 -0.125630
H14   H     H_    0.273322 0.080764 0.207498 0.128473
C27   C     C_R   0.409230 0.782212 0.679116 -0.050348
C28   C     C_R   0.540494 0.471454 0.829311 -0.107692
C29   C     C_R   0.534592 0.877635 0.818982 -0.088156
C30   C     C_R   0.478363 0.783621 0.755011 -0.170101
C31   C     C_R   0.399834 0.878353 0.667863 -0.189895
C32   C     C_R   0.457660 0.977008 0.733038 0.058716
C33   C     C_R   0.525799 0.974222 0.809407 0.058598
C34   C     C_R   0.451794 0.077609 0.725097 0.059640
C35   C     C_R   0.514197 0.173869 0.793122 0.025882
C36   C     C_R   0.586410 0.163261 0.865747 -0.203483
C37   C     C_R   0.588499 0.067493 0.874776 0.183357
C38   C     C_R   0.386694 0.084306 0.650668 -0.160866
C39   C     C_R   0.378951 0.179430 0.641844 -0.197463
C40   C     C_R   0.433880 0.273519 0.706529 0.078540
C41   C     C_R   0.503811 0.275450 0.784637 0.073218
C42   C     C_R   0.417200 0.365827 0.691596 -0.131456
C43   C     C_R   0.468247 0.462833 0.751933 -0.194898
C44   C     C_R   0.557458 0.379096 0.847516 0.240044
H15   H     H_    0.449718 0.532193 0.737972 0.108413
H16   H     H_    0.326268 0.179281 0.582823 0.114787
H17   H     H_    0.587683 0.873190 0.876031 0.191993
H18   H     H_    0.492048 0.711094 0.764764 0.088834
H19   H     H_    0.350442 0.872718 0.607519 0.089114
H20   H     H_    0.651362 0.226662 0.917589 0.225953
H21   H     H_    0.338649 0.016792 0.597102 0.119629
H22   H     H_    0.362180 0.363068 0.632117 0.145193
H23   H     H_    0.334002 0.666050 0.193773 0.153216
H24   H     H_    0.614524 0.589784 0.307561 0.155130
C45   C     C_2   0.314119 0.601807 0.318599 -0.345816
C46   C     C_2   0.476257 0.610027 0.284852 -0.123566
H25   H     H_    0.772834 0.635728 0.206746 0.128642
C47   C     C_2   0.634784 0.655426 0.183442 -0.351552
C48   C     C_2   0.472410 0.646216 0.216686 -0.132279
H26   H     H_    0.176202 0.621805 0.295409 0.125757
O11   O     O_R   0.421600 0.630430 0.917010 -0.544191
O12   O     O_R   0.793840 0.702190 0.087630 -0.546470
O13   O     O_R   0.964010 0.886170 0.088190 -0.528075
C49   C     C_R   0.631224 0.693054 0.115938 0.753202
O14   O     O_R   0.751460 0.619510 0.917500 -0.548786
O15   O     O_R   0.921330 0.802900 0.916840 -0.533918
C50   C     C_R   0.574800 0.579750 0.892612 0.695878
O16   O     O_R   0.464290 0.713700 0.088350 -0.542680
O17   O     O_3   0.609200 0.818520 0.002630 -0.352567
V3    V     V_3+5 0.884140 0.747190 0.002530 1.400624
O18   O     O_R   0.251150 0.814630 0.917340 -0.540679
C51   C     C_R   0.074901 0.824631 0.889938 0.722913
O19   O     O_R   0.293530 0.897310 0.087470 -0.535233
C52   C     C_R   0.131307 0.934005 0.115834 0.788469
V4    V     V_3+5 0.384070 0.769710 0.002370 1.419024
O20   O     O_3   0.109180 0.698190 0.002460 -0.386792
Br1   Br    Br    0.687262 0.070599 0.980013 -0.610764
N1    N     N_2   0.634401 0.393551 0.927696 -0.551918
H27   H     H_    0.752433 0.445663 0.949886 0.254595
C53   C     C_3   0.493993 0.412992 0.985814 -0.574409
H28   H     H_    0.570087 0.431543 0.047324 0.210517
H29   H     H_    0.400363 0.341650 0.970953 0.217818
H30   H     H_    0.404679 0.480087 0.987008 0.190339

loop_
_geom_bond_atom_site_label_1
_geom_bond_atom_site_label_2
_ccdc_geom_bond_type
C13   C19   A    
C40   C42   A    
C29   C30   A    
O12   V3    S    
V4    O20   S    
V3    O20   S    
C1    C27   S    
C38   H21   S    
C4    C6    S    
O2    C1    A    
O17   V3    S    
C1    O6    A    
N1    C53   S    
C45   C46   D    
O15   C51   A    
C14   C15   A    
C36   C37   A    
H25   C47   S    
C16   C17   A    
C29   C33   A    
O5    C3    A    
C18   C19   A    
C8    H6    S    
C44   N1    S    
C53   H28   S    
H11   C26   S    
C32   C34   A    
V2    O10   S    
O18   C51   A    
O15   V3    S    
C5    C8    A    
C43   H15   S    
C28   C50   S    
O14   V3    S    
O11   V4    S    
O8    V2    S    
C24   C26   S    
O19   C52   A    
O16   V4    S    
C42   C43   A    
C17   H4    S    
O1    V2    S    
C11   C15   A    
O7    V1    S    
C45   H26   S    
C40   C41   A    
O9    C4    A    
C36   H20   S    
C47   C49   S    
N1    H27   S    
C49   O16   A    
C42   H22   S    
H12   C24   S    
C30   H18   S    
O13   C52   A    
C47   C48   D    
C37   Br1   S    
O4    C2    A    
C27   C31   A    
C15   H1    S    
C13   C14   A    
C21   H3    S    
C23   C52   S    
C46   C48   S    
C34   C35   A    
C7    C11   A    
C17   C18   A    
O14   C50   A    
C35   C41   A    
C23   C24   D    
C28   C44   A    
C25   C26   D    
C20   H10   S    
C19   C22   A    
C12   C13   A    
C6    C22   A    
O3    C4    A    
C7    H5    S    
C9    H7    S    
H24   C46   S    
O19   V4    S    
O12   C49   A    
H13   C25   S    
O6    V2    S    
O9    V2    S    
C10   C12   A    
O2    V1    S    
H23   C48   S    
C14   H8    S    
C5    C51   S    
C27   C30   A    
C2    C45   S    
O1    C2    A    
C12   C16   A    
O5    V1    S    
C3    C25   S    
O8    C3    A    
C23   H14   S    
C39   H16   S    
C16   H9    S    
C33   C37   A    
C34   C38   A    
C41   C44   A    
C20   C21   A    
C31   H19   S    
C7    C8    A    
C32   C33   A    
O4    V1    S    
O3    V1    S    
V1    O10   S    
C38   C39   A    
C18   C20   A    
C31   C32   A    
C28   C43   A    
C53   H29   S    
O13   V3    S    
O11   C50   A    
C22   H2    S    
O7    V2    S    
C35   C36   A    
C6    C21   A    
C5    C9    A    
C29   H17   S    
C39   C40   A    
C10   C11   A    
C9    C10   A    
O18   V4    S    
O17   V4    S    
C53   H30   S    
