data_mof_unit_29348.cif
_audit_creation_date              2012-10-26T21:10:28-0400
_audit_creation_method            fapswitch 2.2
_symmetry_space_group_name_H-M    P1
_symmetry_Int_Tables_number       1
_space_group_crystal_system       triclinic
_cell_length_a                    10.953632
_cell_length_b                    11.002795
_cell_length_c                    9.976572
_cell_angle_alpha                 87.050613
_cell_angle_beta                  91.173672
_cell_angle_gamma                 92.430943
_cell_volume                      1199.5069761

loop_
_atom_site_label
_atom_site_type_symbol
_atom_type_description
_atom_site_fract_x
_atom_site_fract_y
_atom_site_fract_z
_atom_type_partial_charge
C1    C     C_R   0.499150 0.266007 0.503343 0.538325
C2    C     C_R   0.897731 0.519086 0.995499 -0.095456
C3    C     C_R   0.832773 0.410372 0.030888 -0.096401
C4    C     C_R   0.263357 0.501509 0.498255 0.536146
C5    C     C_R   0.800866 0.328299 0.932605 -0.111914
C6    C     C_R   0.833133 0.355668 0.799259 -0.058296
C7    C     C_R   0.896294 0.464830 0.762625 0.071092
C8    C     C_2   0.443412 0.934584 0.410239 -0.147855
C9    C     C_2   0.509090 0.862854 0.493626 -0.086277
C10   C     C_2   0.455749 0.068899 0.408185 -0.129126
C11   C     C_2   0.494821 0.132527 0.514182 0.269322
C12   C     C_R   0.225051 0.589459 0.993167 -0.060770
C13   C     C_2   0.484275 0.404522 0.928620 0.048234
C14   C     C_2   0.493343 0.404371 0.079578 0.085186
C15   C     C_R   0.498024 0.732697 0.497115 0.528428
C16   C     C_R   0.737370 0.499705 0.501967 0.523691
C17   C     C_R   0.204677 0.686628 0.073715 -0.090959
C18   C     C_R   0.150082 0.665018 0.198663 -0.087915
C19   C     C_R   0.115693 0.545700 0.243511 0.050764
C20   C     C_R   0.137540 0.448228 0.162930 -0.067742
C21   C     C_R   0.191844 0.470334 0.037890 -0.100747
C22   C     C_3   0.631920 0.096138 0.693124 -0.010601
C23   C     C_R   0.932706 0.521093 0.382971 -0.162594
C24   C     C_3   0.738218 0.090543 0.592492 -0.299076
C25   C     C_3   0.854142 0.043077 0.661018 -0.476648
C26   C     C_3   0.609446 0.678784 0.144705 0.130833
C27   C     C_3   0.591108 0.815733 0.122647 -0.259082
C28   C     C_3   0.696119 0.891347 0.183949 -0.499562
C29   C     C_R   0.872480 0.500901 0.505519 -0.002574
C30   C     C_R   0.944049 0.485706 0.625570 -0.028937
C31   C     C_R   0.070422 0.486370 0.617757 -0.157178
C32   C     C_R   0.129557 0.503644 0.495523 -0.001183
C33   C     C_R   0.059722 0.522473 0.376244 -0.032644
C34   C     C_R   0.931638 0.545222 0.862591 -0.074332
Cu1   Cu    Cu3+1 0.500020 0.500020 0.638630 1.000333
Cu2   Cu    Cu3+1 0.499980 0.499980 0.361370 0.954170
H1    H     H_    0.266624 0.606472 0.896167 0.147938
H2    H     H_    0.231150 0.778678 0.039281 0.106312
H3    H     H_    0.134822 0.740825 0.260486 0.093698
H4    H     H_    0.112043 0.355690 0.196742 0.098156
H5    H     H_    0.207557 0.395240 0.975352 0.092947
H6    H     H_    0.880575 0.537615 0.291318 0.115813
H7    H     H_    0.123087 0.470978 0.709907 0.133211
H8    H     H_    0.983552 0.628921 0.837119 0.108005
H9    H     H_    0.920187 0.584719 0.069731 0.104106
H10   H     H_    0.644927 0.025860 0.775651 0.157463
H11   H     H_    0.635480 0.183800 0.742806 0.149203
H12   H     H_    0.806364 0.390041 0.133757 0.115232
H13   H     H_    0.714317 0.031195 0.508766 0.156197
H14   H     H_    0.757959 0.182703 0.545261 0.136534
H15   H     H_    0.880337 0.095689 0.749815 0.142364
H16   H     H_    0.930449 0.050768 0.589095 0.151937
H17   H     H_    0.839180 0.945698 0.694070 0.161060
H18   H     H_    0.696631 0.655525 0.101714 0.106658
H19   H     H_    0.639073 0.656239 0.245245 0.191731
H20   H     H_    0.584263 0.840575 0.013576 0.179476
H21   H     H_    0.503891 0.838428 0.167474 0.175135
H22   H     H_    0.704587 0.869286 0.293533 0.147566
H23   H     H_    0.751441 0.243631 0.959708 0.080407
H24   H     H_    0.678446 0.989727 0.167989 0.142930
H25   H     H_    0.783435 0.872964 0.135562 0.144179
H26   H     H_    0.811587 0.292096 0.723870 0.096467
H27   H     H_    0.380196 0.893906 0.338421 0.116781
H28   H     H_    0.574032 0.895914 0.565944 0.167779
H29   H     H_    0.427830 0.116757 0.315371 0.091487
H30   H     H_    0.448869 0.320505 0.887425 0.079302
H31   H     H_    0.486959 0.315100 0.130620 0.065808
I1    I     I_    0.644211 0.626720 0.852944 -0.296830
N1    N     N_2   0.498640 0.498660 0.846910 -0.116762
N2    N     N_2   0.498610 0.498630 0.153040 -0.045009
O1    O     O_R   0.500020 0.321960 0.617040 -0.501963
O2    O     O_3   0.505851 0.610861 0.091822 -0.449562
O3    O     O_R   0.499980 0.321920 0.382900 -0.552623
O4    O     O_R   0.319660 0.500030 0.617070 -0.521476
O5    O     O_R   0.319620 0.499990 0.382930 -0.479201
O6    O     O_R   0.500020 0.678080 0.617100 -0.458566
O7    O     O_R   0.499980 0.678040 0.382960 -0.522837
O8    O     O_R   0.680380 0.500010 0.617070 -0.468197
O9    O     O_R   0.680340 0.499970 0.382930 -0.560818
O10   O     O_3   0.512707 0.072921 0.638726 -0.580696

loop_
_geom_bond_atom_site_label_1
_geom_bond_atom_site_label_2
_ccdc_geom_bond_type
Cu1   O4    S    
C9    H28   S    
C26   O2    S    
C19   C20   A    
C1    C11   S    
C26   H19   S    
C26   C27   S    
C1    O1    A    
C23   H6    S    
C31   H7    S    
C5    C6    A    
C23   C29   A    
C25   H17   S    
Cu2   O7    S    
C30   C31   A    
C20   H4    S    
C3    H12   S    
C18   C19   A    
C12   H1    S    
C4    O5    A    
Cu1   Cu2   S    
I1    N1    S    
C23   C33   A    
C12   C17   A    
C14   H31   S    
C4    O4    A    
C28   H25   S    
C2    C34   A    
C22   H11   S    
Cu1   O1    S    
C7    C30   S    
C13   C14   S    
C14   N2    D    
C26   H18   S    
Cu2   N2    S    
C13   H30   S    
C28   H24   S    
C2    H9    S    
C24   H14   S    
Cu1   O6    S    
C5    H23   S    
C34   H8    S    
C24   C25   S    
C10   C11   D    
C27   H20   S    
C8    C9    D    
C16   C29   S    
C12   C21   A    
C18   H3    S    
C25   H15   S    
C29   C30   A    
Cu2   O5    S    
C31   C32   A    
C17   C18   A    
C4    C32   S    
C21   H5    S    
C22   H10   S    
C27   H21   S    
C7    C34   A    
C22   C24   S    
C10   H29   S    
C24   H13   S    
C19   C33   S    
C3    C5    A    
Cu2   O9    S    
C6    C7    A    
C28   H22   S    
Cu1   O8    S    
C16   O9    A    
C1    O3    A    
C32   C33   A    
C6    H26   S    
C2    C3    A    
C9    C15   S    
C25   H16   S    
C22   O10   S    
C15   O7    A    
C13   N1    D    
C15   O6    A    
C16   O8    A    
C17   H2    S    
C11   O10   S    
C8    H27   S    
C20   C21   A    
Cu1   N1    S    
C8    C10   S    
C27   C28   S    
N2    O2    S    
Cu2   O3    S    
