data_mof_unit_28639.cif
_audit_creation_date              2012-12-11T15:39:33-0500
_audit_creation_method            fapswitch 2.2
_symmetry_space_group_name_H-M    P1
_symmetry_Int_Tables_number       1
_space_group_crystal_system       triclinic
_cell_length_a                    6.941826
_cell_length_b                    15.119777
_cell_length_c                    16.598675
_cell_angle_alpha                 95.579913
_cell_angle_beta                  90.039635
_cell_angle_gamma                 90.106204
_cell_volume                      1733.91915566

loop_
_atom_site_label
_atom_site_type_symbol
_atom_type_description
_atom_site_fract_x
_atom_site_fract_y
_atom_site_fract_z
_atom_type_partial_charge
O1    O     O_R   0.633330 0.174290 0.828230 -0.535856
O2    O     O_R   0.366670 0.825710 0.171770 -0.535856
O3    O     O_R   0.301450 0.154140 0.662030 -0.547210
O4    O     O_R   0.698550 0.845860 0.337970 -0.547210
O5    O     O_R   0.133140 0.325730 0.671770 -0.534667
O6    O     O_R   0.866860 0.674270 0.328230 -0.534667
C1    C     C_R   0.470485 0.131069 0.633818 0.720698
C2    C     C_R   0.529515 0.868931 0.366182 0.720698
O7    O     O_R   0.303490 0.163670 0.827000 -0.539848
O8    O     O_R   0.696510 0.836330 0.173000 -0.539848
O9    O     O_R   0.135190 0.335320 0.837920 -0.539618
O10   O     O_R   0.864810 0.664680 0.162080 -0.539618
C3    C     C_R   0.472460 0.142946 0.853775 0.715408
C4    C     C_R   0.527540 0.857054 0.146225 0.715407
O11   O     O_R   0.631280 0.164690 0.662080 -0.528068
O12   O     O_R   0.368720 0.835310 0.337920 -0.528068
O13   O     O_3   0.467420 0.306310 0.753380 -0.364097
O14   O     O_3   0.532580 0.693690 0.246620 -0.364097
V1    V     V_3+5 0.191790 0.239560 0.749370 1.426035
V2    V     V_3+5 0.808210 0.760440 0.250630 1.426035
O15   O     O_R   0.805590 0.345870 0.837970 -0.528388
O16   O     O_R   0.194410 0.654130 0.162030 -0.528388
C5    C     C_R   0.974337 0.367317 0.867407 0.706541
C6    C     C_R   0.025663 0.632683 0.132593 0.706541
O17   O     O_R   0.803560 0.336340 0.672990 -0.536864
O18   O     O_R   0.196440 0.663660 0.327010 -0.536864
C7    C     C_R   0.972478 0.356678 0.645881 0.732445
C8    C     C_R   0.027522 0.643322 0.354119 0.732446
V3    V     V_3+5 0.692030 0.260450 0.750630 1.459891
V4    V     V_3+5 0.307970 0.739550 0.249370 1.459891
O19   O     O_3   0.966260 0.193700 0.746610 -0.371832
O20   O     O_3   0.033740 0.806300 0.253390 -0.371832
C9    C     C_1   0.983106 0.418698 0.583496 -0.203986
C10   C     C_1   0.016894 0.581302 0.416504 -0.203986
C11   C     C_1   0.993558 0.469937 0.530989 -0.000335
C12   C     C_1   0.006442 0.530063 0.469011 -0.000335
C13   C     C_3   0.837260 0.548238 0.005466 -0.185589
C14   C     C_3   0.162740 0.451762 0.994534 -0.185589
C15   C     C_3   0.972423 0.537918 0.930108 -0.298951
C16   C     C_3   0.027577 0.462082 0.069892 -0.298951
H1    H     H_    0.701597 0.587006 0.010752 0.183615
H2    H     H_    0.298402 0.412994 0.989248 0.183615
C17   C     C_3   0.985313 0.437264 0.937868 -0.149635
C18   C     C_3   0.014687 0.562736 0.062132 -0.149635
C19   C     C_3   0.853199 0.447545 0.012224 0.514584
C20   C     C_3   0.146801 0.552455 0.987775 0.514584
C21   C     C_3   0.608339 0.976238 0.562413 -0.291129
C22   C     C_3   0.391661 0.023762 0.437587 -0.291129
C23   C     C_3   0.440600 0.922599 0.520301 0.496088
C24   C     C_3   0.559400 0.077401 0.479699 0.496088
H3    H     H_    0.696053 0.956750 0.613734 0.124397
H4    H     H_    0.303947 0.043250 0.386266 0.124397
C25   C     C_3   0.517217 0.939301 0.436484 -0.133937
C26   C     C_3   0.482783 0.060699 0.563515 -0.133937
C27   C     C_3   0.686742 0.993645 0.477299 -0.198724
C28   C     C_3   0.313258 0.006355 0.522701 -0.198724
C29   C     C_1   0.482766 0.080775 0.916063 -0.201590
C30   C     C_1   0.517234 0.919225 0.083937 -0.201590
C31   C     C_1   0.493348 0.029780 0.968778 -0.005034
C32   C     C_1   0.506652 0.970220 0.031222 -0.005034
H5    H     H_    0.947929 0.568377 0.872779 0.123303
H6    H     H_    0.052071 0.431623 0.127221 0.123303
O21   O     O_3   0.685214 0.397857 0.024168 -0.553114
C33   C     C_3   0.734430 0.311924 0.043123 0.095139
H7    H     H_    0.828388 0.314387 0.097602 0.111583
H8    H     H_    0.807922 0.274118 0.991139 0.109395
C34   C     C_3   0.551075 0.262809 0.061974 -0.709371
H9    H     H_    0.452800 0.258394 0.008939 0.206021
H10   H     H_    0.586944 0.194749 0.076858 0.184235
H11   H     H_    0.476540 0.298700 0.114570 0.217905
O22   O     O_3   0.314786 0.602143 0.975832 -0.553114
C35   C     C_3   0.265570 0.688076 0.956877 0.095140
H12   H     H_    0.192078 0.725882 0.008861 0.109395
H13   H     H_    0.171611 0.685613 0.902398 0.111583
C36   C     C_3   0.448925 0.737191 0.938026 -0.709371
H14   H     H_    0.523459 0.701300 0.885430 0.217905
H15   H     H_    0.413056 0.805251 0.923141 0.184235
H16   H     H_    0.547200 0.741606 0.991061 0.206021
O23   O     O_3   0.366279 0.840397 0.539909 -0.558034
C37   C     C_3   0.519003 0.781519 0.551793 0.083051
H17   H     H_    0.586913 0.799676 0.611846 0.124739
H18   H     H_    0.630949 0.781723 0.503704 0.107228
C38   C     C_3   0.440052 0.687467 0.550111 -0.687207
H19   H     H_    0.375496 0.667006 0.489956 0.223227
H20   H     H_    0.558401 0.640843 0.561281 0.177766
H21   H     H_    0.328349 0.684119 0.597602 0.221948
O24   O     O_3   0.633721 0.159603 0.460091 -0.558034
C39   C     C_3   0.480997 0.218481 0.448207 0.083050
H22   H     H_    0.369051 0.218277 0.496296 0.107228
H23   H     H_    0.413087 0.200324 0.388153 0.124739
C40   C     C_3   0.559948 0.312533 0.449888 -0.687208
H24   H     H_    0.671651 0.315881 0.402398 0.221948
H25   H     H_    0.441599 0.359157 0.438719 0.177766
H26   H     H_    0.624504 0.332993 0.510043 0.223227
H27   H     H_    0.839602 0.989840 0.457695 0.137842
H28   H     H_    0.160398 0.010160 0.542305 0.137842

loop_
_geom_bond_atom_site_label_1
_geom_bond_atom_site_label_2
_ccdc_geom_bond_type
C14   C16   S    
O24   C39   S    
O13   V3    S    
C11   C12   S    
O4    C2    A    
V1    O19   S    
C16   H6    S    
C21   C23   S    
C7    C9    S    
O9    V1    S    
C24   C26   S    
C14   H2    S    
O3    C1    A    
C37   C38   S    
C29   C31   T    
C3    C29   S    
O12   V4    S    
C5    C17   S    
C22   C28   S    
O7    C3    A    
C9    C11   T    
O5    C7    A    
O7    V1    S    
O6    C8    A    
O8    V2    S    
O3    V1    S    
O14   V4    S    
C10   C12   T    
C22   C24   S    
C8    C10   S    
C31   C32   S    
C2    O12   A    
C16   C19   S    
C35   C36   S    
C4    C30   S    
C18   C20   S    
O11   V3    S    
C25   C27   S    
O17   V3    S    
C22   C25   S    
C15   H5    S    
C26   C28   S    
C34   H9    S    
C33   C34   S    
C27   H27   S    
C35   H13   S    
O8    C4    A    
C40   H24   S    
C37   H17   S    
C15   C17   S    
C1    O11   A    
C21   C26   S    
O15   V3    S    
C19   O21   S    
O23   C37   S    
C34   H10   S    
C33   H8    S    
C36   H14   S    
C40   H25   S    
C36   H15   S    
C38   H19   S    
C39   C40   S    
C16   C18   S    
O10   V2    S    
O1    V3    S    
C17   C19   S    
C20   O22   S    
C24   O24   S    
C15   C20   S    
C37   H18   S    
C38   H20   S    
C39   H23   S    
O18   V4    S    
O15   C5    A    
C6    C18   S    
O16   C6    A    
O1    C3    A    
C13   C19   S    
C21   C27   S    
V2    O20   S    
C28   H28   S    
O16   V4    S    
C35   H12   S    
C2    C25   S    
C21   H3    S    
O5    V1    S    
O17   C7    A    
C23   C28   S    
O6    V2    S    
O10   C6    A    
O18   C8    A    
C24   C27   S    
O2    V4    S    
C34   H11   S    
C33   H7    S    
C13   C18   S    
C14   C17   S    
V3    O19   S    
C40   H26   S    
V4    O20   S    
C23   C25   S    
O9    C5    A    
O13   V1    S    
O14   V2    S    
C13   H1    S    
O2    C4    A    
C36   H16   S    
C14   C20   S    
O21   C33   S    
O4    V2    S    
C23   O23   S    
C22   H4    S    
C38   H21   S    
O22   C35   S    
C39   H22   S    
C13   C15   S    
C1    C26   S    
C30   C32   T    
