data_mof_unit_13430.cif
_audit_creation_date              2012-12-11T16:18:14-0500
_audit_creation_method            fapswitch 2.2
_symmetry_space_group_name_H-M    P1
_symmetry_Int_Tables_number       1
_space_group_crystal_system       triclinic
_cell_length_a                    14.025306
_cell_length_b                    14.024448
_cell_length_c                    30.003248
_cell_angle_alpha                 96.830947
_cell_angle_beta                  96.642272
_cell_angle_gamma                 61.317235
_cell_volume                      5128.98638077

loop_
_atom_site_label
_atom_site_type_symbol
_atom_type_description
_atom_site_fract_x
_atom_site_fract_y
_atom_site_fract_z
_atom_type_partial_charge
C1    C     C_R   0.384952 0.713094 0.442609 0.542730
C2    C     C_R   0.793325 0.263743 0.377240 0.099030
C3    C     C_R   0.823105 0.242806 0.332699 0.243660
C4    C     C_R   0.398593 0.380937 0.426688 0.552584
C5    C     C_R   0.836396 0.321022 0.312429 -0.022250
C6    C     C_R   0.836937 0.410941 0.338345 0.056195
C7    C     C_R   0.809282 0.431025 0.383571 0.223095
C8    C     C_R   0.819002 0.406728 0.156582 0.284752
C9    C     C_R   0.839965 0.399119 0.111504 0.257034
C10   C     C_R   0.871914 0.211144 0.103253 0.247734
C11   C     C_R   0.853289 0.217355 0.148553 0.270494
C12   C     C_R   0.297813 0.253151 0.224358 0.299482
C13   C     C_R   0.833822 0.313170 0.176076 -0.080074
C14   C     C_1   0.836136 0.313635 0.224151 -0.000246
C15   C     C_1   0.838239 0.315379 0.264368 0.032174
C16   C     C_R   0.712249 0.404389 0.442593 0.574708
C17   C     C_R   0.879375 0.297174 0.086024 -0.119623
C18   C     C_R   0.364098 0.774758 0.402348 -0.056192
C19   C     C_R   0.445962 0.797689 0.390407 0.225770
C20   C     C_R   0.451444 0.811311 0.345550 0.112762
C21   C     C_R   0.372558 0.808806 0.313113 0.008335
C22   C     C_R   0.282395 0.802594 0.325440 0.254720
C23   C     C_R   0.304448 0.264037 0.271416 0.302475
C24   C     C_R   0.275029 0.790723 0.370792 0.035731
C25   C     C_R   0.254947 0.854572 0.160249 0.224003
C26   C     C_R   0.222995 0.890513 0.116405 0.189423
C27   C     C_R   0.409813 0.853063 0.107922 0.243846
C28   C     C_R   0.389145 0.712276 0.568008 0.548559
C29   C     C_R   0.438147 0.827547 0.152921 0.270286
C30   C     C_R   0.358725 0.832368 0.179327 -0.011605
C31   C     C_1   0.377600 0.819988 0.226759 0.111000
C32   C     C_1   0.380796 0.814127 0.266460 0.135577
C33   C     C_R   0.299862 0.892947 0.090382 -0.045879
C34   C     C_R   0.314570 0.353413 0.294175 -0.049057
C35   C     C_R   0.353212 0.358022 0.588569 -0.035678
C36   C     C_R   0.412192 0.259400 0.610347 0.089141
C37   C     C_R   0.390741 0.256266 0.654785 0.090422
C38   C     C_R   0.310001 0.350057 0.676555 -0.015595
C39   C     C_R   0.237128 0.438835 0.651842 0.095976
C40   C     C_R   0.399268 0.381281 0.551239 0.557764
C41   C     C_R   0.255645 0.440941 0.606979 0.069768
C42   C     C_R   0.222181 0.426594 0.837805 0.067439
C43   C     C_R   0.215242 0.405042 0.881847 0.213037
C44   C     C_R   0.396497 0.247530 0.878409 0.248035
C45   C     C_R   0.300903 0.332011 0.199792 -0.064061
C46   C     C_R   0.400487 0.265475 0.834000 0.284017
C47   C     C_R   0.310061 0.351413 0.812743 -0.057262
C48   C     C_1   0.304725 0.356942 0.764760 0.043870
C49   C     C_1   0.304241 0.355473 0.724505 0.062100
C50   C     C_R   0.299212 0.310168 0.900993 -0.032432
C51   C     C_1   0.765531 0.374338 0.611800 0.054106
C52   C     C_R   0.713616 0.407307 0.568331 0.544956
C53   C     C_R   0.875332 0.384439 0.724129 0.236109
C54   C     C_R   0.888727 0.375530 0.771296 0.228487
C55   C     C_R   0.814206 0.247972 0.761835 0.070238
C56   C     C_1   0.295830 0.320484 0.151472 -0.005702
C57   C     C_R   0.796825 0.260348 0.715213 0.062641
C58   C     C_R   0.826206 0.329592 0.696758 0.020974
C59   C     C_R   0.859623 0.306057 0.789578 0.019451
C60   C     C_1   0.880736 0.293184 0.837235 0.067831
C61   C     C_1   0.798090 0.351472 0.649975 0.072312
C62   C     C_1   0.906964 0.282646 0.876700 0.053643
C63   C     C_1   0.372655 0.764039 0.612503 0.034634
C64   C     C_1   0.363283 0.363704 0.381480 0.021103
C65   C     C_R   0.247518 0.849321 0.715532 0.088849
C66   C     C_R   0.237082 0.863064 0.762234 0.059566
C67   C     C_1   0.338397 0.356646 0.342075 -0.045104
C68   C     C_R   0.423743 0.835006 0.775668 0.296338
C69   C     C_R   0.435043 0.820955 0.728738 0.238295
C70   C     C_R   0.346587 0.826794 0.698813 -0.027357
C71   C     C_R   0.325457 0.854928 0.791979 0.005080
C72   C     C_1   0.311915 0.876698 0.839653 0.066519
C73   C     C_1   0.360412 0.797135 0.651402 -0.008216
C74   C     C_1   0.293707 0.903822 0.878648 0.054488
C75   C     C_R   0.946600 0.274512 0.047207 0.523822
C76   C     C_R   0.313202 0.434393 0.269487 0.246697
C77   C     C_R   0.275267 0.270487 0.065328 0.545144
C78   C     C_1   0.288844 0.303002 0.111399 0.038887
C79   C     C_R   0.260745 0.953244 0.048921 0.557473
C80   C     C_R   0.952182 0.269325 0.922141 0.536105
C81   C     C_R   0.277513 0.267797 0.939920 0.562189
C82   C     C_R   0.261944 0.950568 0.922946 0.538833
C83   C     C_R   0.307596 0.422289 0.222436 0.151797
C84   C     C_R   0.775758 0.363558 0.401567 -0.021977
Cr1   Cr    Cr6+3 0.581000 0.584320 0.508140 1.121687
Cr2   Cr    Cr6+3 0.339110 0.576430 0.496080 1.107253
Cr3   Cr    Cr6+3 0.579910 0.339270 0.495810 1.112055
Cr4   Cr    Cr6+3 0.082090 0.079210 0.982490 1.111086
Cr5   Cr    Cr6+3 0.082460 0.324610 0.994920 1.122979
Cr6   Cr    Cr6+3 0.323630 0.087860 0.996130 1.098126
H1    H     H_    0.306870 0.534245 0.322115 0.333572
H2    H     H_    0.472778 0.824561 0.050592 0.324415
H3    H     H_    0.063987 0.517606 0.886688 0.370414
H4    H     H_    0.496831 0.228797 0.785534 0.342835
H5    H     H_    0.494870 0.190535 0.930343 0.332757
H6    H     H_    0.971723 0.447143 0.722390 0.356510
H7    H     H_    0.283688 0.163291 0.171020 0.321920
H8    H     H_    0.907707 0.503978 0.787219 0.361359
H9    H     H_    0.570764 0.817321 0.790964 0.400178
H10   H     H_    0.526646 0.805696 0.680819 0.353262
H11   H     H_    0.295932 0.205310 0.326135 0.330746
H12   H     H_    0.829087 0.145354 0.194833 0.334923
H13   H     H_    0.800929 0.488242 0.061308 0.334622
H14   H     H_    0.755270 0.507665 0.208535 0.339008
H15   H     H_    0.857439 0.541308 0.398361 0.365239
H16   H     H_    0.854111 0.139754 0.046326 0.332616
H17   H     H_    0.871512 0.133574 0.281749 0.343089
H18   H     H_    0.067609 0.962651 0.124911 0.383663
H19   H     H_    0.134629 0.825637 0.165655 0.365488
H20   H     H_    0.164168 0.771731 0.301399 0.373874
H21   H     H_    0.488985 0.834108 0.450807 0.337760
H22   H     H_    0.555988 0.775282 0.200370 0.335985
I1    I     I_    0.123373 0.812234 0.390991 -0.187435
I2    I     I_    0.727279 0.174354 0.671833 -0.186567
I3    I     I_    0.113919 0.861804 0.669469 -0.156467
I4    I     I_    0.088160 0.895693 0.788721 -0.173547
I5    I     I_    0.869362 0.521517 0.307142 -0.239083
I6    I     I_    0.781421 0.136091 0.404956 -0.098665
I7    I     I_    0.310650 0.542879 0.186252 -0.202970
I8    I     I_    0.581066 0.834547 0.327534 -0.118848
I9    I     I_    0.103549 0.574651 0.809701 -0.224861
I10   I     I_    0.100008 0.570128 0.682929 -0.148536
I11   I     I_    0.128962 0.563956 0.566862 -0.150241
I12   I     I_    0.524760 0.111758 0.575415 -0.165832
I13   I     I_    0.478434 0.110684 0.689962 -0.184689
I14   I     I_    0.769162 0.145088 0.791324 -0.145527
O1    O     O_R   0.688580 0.499770 0.460490 -0.413537
O2    O     O_R   0.346150 0.177650 0.050510 -0.488273
O3    O     O_R   0.314200 0.996600 0.036060 -0.498026
O4    O     O_R   0.480400 0.672610 0.462660 -0.477502
O5    O     O_R   0.168690 0.969990 0.933130 -0.489797
O6    O     O_R   0.991920 0.175870 0.937430 -0.495698
O7    O     O_R   0.974010 0.342590 0.941330 -0.480157
O8    O     O_R   0.182630 0.317940 0.955040 -0.429358
O9    O     O_R   0.347320 0.174720 0.953250 -0.497563
O10   O     O_R   0.315290 0.993890 0.945900 -0.484355
O11   O     O_3   0.162730 0.163890 0.991180 -0.285888
O12   O     O_R   0.348600 0.476260 0.536540 -0.477888
O13   O     O_R   0.315310 0.685650 0.451800 -0.473734
O14   O     O_R   0.346220 0.474990 0.446280 -0.490764
O15   O     O_R   0.492270 0.312460 0.441630 -0.477924
O16   O     O_R   0.669740 0.350480 0.455640 -0.495420
O17   O     O_R   0.691150 0.501150 0.557860 -0.484387
O18   O     O_R   0.482790 0.673890 0.552920 -0.498925
O19   O     O_R   0.317880 0.687030 0.549170 -0.473319
O20   O     O_3   0.320172 0.524963 0.289845 -0.649074
O21   O     O_3   0.856923 0.126938 0.164479 -0.607747
O22   O     O_3   0.885232 0.118321 0.077139 -0.580161
O23   O     O_R   0.494840 0.313840 0.539010 -0.469760
O24   O     O_3   0.833799 0.147121 0.309543 -0.621364
O25   O     O_3   0.115849 0.930041 0.099635 -0.610922
O26   O     O_3   0.184831 0.844699 0.185974 -0.609965
O27   O     O_3   0.203514 0.807848 0.292112 -0.589881
O28   O     O_3   0.522721 0.805518 0.421602 -0.605243
O29   O     O_3   0.544197 0.798021 0.169366 -0.561967
O30   O     O_3   0.491488 0.840627 0.082464 -0.581520
O31   O     O_3   0.127613 0.474254 0.906871 -0.635262
O32   O     O_3   0.494564 0.196264 0.812632 -0.575118
O33   O     O_3   0.488832 0.166027 0.898260 -0.581662
O34   O     O_R   0.672120 0.351750 0.545910 -0.486155
O35   O     O_3   0.909430 0.445256 0.703822 -0.654188
O36   O     O_3   0.289380 0.163128 0.204136 -0.615259
O37   O     O_3   0.927768 0.434860 0.800444 -0.682720
O38   O     O_3   0.506741 0.830608 0.806650 -0.639715
O39   O     O_3   0.533381 0.800251 0.713705 -0.661405
O40   O     O_3   0.302999 0.183662 0.293603 -0.605440
O41   O     O_3   0.822872 0.492867 0.093771 -0.566675
O42   O     O_3   0.786683 0.506730 0.180513 -0.572698
O43   O     O_3   0.809679 0.518197 0.410331 -0.613975
O44   O     O_3   0.500010 0.500010 0.500010 -0.287789
O45   O     O_R   0.167510 0.972920 0.030390 -0.415203
O46   O     O_R   0.990840 0.178580 0.027590 -0.473740
O47   O     O_R   0.972840 0.345510 0.038590 -0.482190
O48   O     O_R   0.181550 0.320660 0.045200 -0.480821

loop_
_geom_bond_atom_site_label_1
_geom_bond_atom_site_label_2
_ccdc_geom_bond_type
C52   O34   A    
H13   O41   S    
C77   O48   A    
Cr4   O46   S    
C55   C59   A    
C27   C29   A    
C2    C84   A    
C35   C36   A    
C51   C61   T    
Cr5   O47   S    
C53   O35   S    
Cr1   O17   S    
H8    O37   S    
C2    I6    S    
H16   O22   S    
C81   O8    A    
C39   C41   A    
C38   C49   S    
C53   C54   A    
C27   C33   A    
C12   C23   A    
C1    C18   S    
C8    C13   A    
C39   I10   S    
H15   O43   S    
C25   O26   S    
C80   O6    A    
C62   C80   S    
C36   C37   A    
C36   I12   S    
Cr3   O34   S    
C30   C31   S    
Cr1   O4    S    
C4    O14   A    
C10   C17   A    
C79   O45   A    
C65   C70   A    
C46   O32   S    
C16   C84   S    
C56   C78   T    
H6    O35   S    
C76   C83   A    
C60   C62   T    
C18   C19   A    
C83   I7    S    
H17   O24   S    
C8    O42   S    
Cr6   O3    S    
C66   C71   A    
C45   C56   S    
C8    C9    A    
H22   O29   S    
C40   O12   A    
C47   C48   S    
C25   C30   A    
C28   O18   A    
C54   O37   S    
C29   C30   A    
C6    I5    S    
C1    O13   A    
Cr2   O14   S    
C29   O29   S    
C58   C61   S    
C7    C84   A    
C76   O20   S    
C59   C60   S    
H4    O32   S    
Cr4   O45   S    
C13   C14   S    
C65   I3    S    
C45   C83   A    
Cr5   O48   S    
C74   C82   S    
Cr1   O18   S    
C16   O1    A    
C44   C46   A    
C81   O9    A    
C37   I13   S    
C54   C59   A    
C68   O38   S    
C38   C39   A    
H5    O33   S    
C21   C32   S    
C52   O17   A    
Cr5   O7    S    
C51   C52   S    
C64   C67   T    
C9    O41   S    
H19   O26   S    
C72   C74   T    
C1    O4    A    
C4    O15   A    
C68   C69   A    
C63   C73   T    
C3    C5    A    
C25   C26   A    
C77   C78   S    
Cr3   O44   S    
C80   O7    A    
H10   O39   S    
C16   O16   A    
H11   O40   S    
C37   C38   A    
H12   O21   S    
H14   O42   S    
C23   O40   S    
Cr6   O10   S    
C26   C33   A    
C31   C32   T    
C55   I14   S    
C23   C34   A    
C70   C73   S    
C28   O19   A    
H2    O30   S    
C75   O47   A    
Cr3   O15   S    
H3    O31   S    
C57   I2    S    
C77   O2    A    
C66   I4    S    
Cr2   O13   S    
C9    C17   A    
C48   C49   T    
H7    O36   S    
Cr5   O11   S    
C55   C57   A    
C18   C24   A    
Cr1   O1    S    
C42   C43   A    
Cr4   O6    S    
Cr2   O19   S    
C20   I8    S    
Cr6   O11   S    
C44   C50   A    
C27   O30   S    
C44   O33   S    
C46   C47   A    
C26   O25   S    
C3    O24   S    
Cr5   O8    S    
Cr2   O44   S    
H18   O25   S    
C33   C79   S    
C12   C45   A    
C43   O31   S    
C34   C67   S    
C53   C58   A    
C43   C50   A    
C6    C7    A    
C4    C64   S    
Cr1   O44   S    
C41   I11   S    
C19   C20   A    
C7    O43   S    
C2    C3    A    
C71   C72   S    
H20   O27   S    
Cr6   O9    S    
C11   C13   A    
C11   O21   S    
C57   C58   A    
C5    C6    A    
C68   C71   A    
C40   O23   A    
C35   C40   S    
C22   C24   A    
C42   C47   A    
Cr3   O16   S    
C82   O10   A    
C69   C70   A    
C35   C41   A    
H21   O28   S    
C69   O39   S    
Cr4   O11   S    
C5    C15   S    
C10   C11   A    
Cr2   O12   S    
C12   O36   S    
H9    O38   S    
C28   C63   S    
C24   I1    S    
C20   C21   A    
C42   I9    S    
C65   C66   A    
Cr3   O23   S    
C10   O22   S    
C75   O46   A    
C17   C75   S    
C19   O28   S    
Cr6   O2    S    
C14   C15   T    
Cr4   O5    S    
C82   O5    A    
C21   C22   A    
H1    O20   S    
C50   C81   S    
C34   C76   A    
C22   O27   S    
C79   O3    A    
