data_mof_unit_21813.cif
_audit_creation_date              2012-12-10T19:00:43-0500
_audit_creation_method            fapswitch 2.2
_symmetry_space_group_name_H-M    P1
_symmetry_Int_Tables_number       1
_space_group_crystal_system       triclinic
_cell_length_a                    15.068455
_cell_length_b                    10.910449
_cell_length_c                    9.565113
_cell_angle_alpha                 90.184902
_cell_angle_beta                  89.959314
_cell_angle_gamma                 90.098146
_cell_volume                      1572.52821918

loop_
_atom_site_label
_atom_site_type_symbol
_atom_type_description
_atom_site_fract_x
_atom_site_fract_y
_atom_site_fract_z
_atom_type_partial_charge
C1    C     C_R   0.498420 0.262496 0.498915 0.808812
C2    C     C_R   0.907264 0.523737 0.376070 0.128365
C3    C     C_R   0.952611 0.443530 0.747583 -0.292455
C4    C     C_R   0.045511 0.440384 0.748920 0.254623
C5    C     C_R   0.093001 0.469028 0.625663 0.071519
C6    C     C_R   0.046553 0.496255 0.501092 0.007602
C7    C     C_R   0.093068 0.523760 0.376753 0.131907
C8    C     C_R   0.046595 0.551167 0.254001 -0.218954
C9    C     C_R   0.954171 0.550526 0.253391 -0.224629
C10   C     C_R   0.185797 0.472646 0.624089 -0.235350
C11   C     C_R   0.231859 0.498964 0.500394 -0.088225
C12   C     C_R   0.328704 0.499913 0.500084 0.803761
C13   C     C_R   0.185416 0.523976 0.377097 -0.246806
C14   C     C_R   0.516872 0.065489 0.618036 0.030697
C15   C     C_R   0.498980 0.129092 0.494731 -0.145798
C16   C     C_R   0.482124 0.061153 0.370005 0.154087
C17   C     C_R   0.480044 0.933502 0.376825 -0.217902
C18   C     C_R   0.495671 0.870860 0.501181 -0.119629
C19   C     C_R   0.513154 0.938477 0.622024 0.039975
C20   C     C_3   0.465024 0.939347 0.759768 -0.053650
C21   C     C_3   0.471714 0.078428 0.757084 0.088787
C22   C     C_R   0.571549 0.542242 0.072735 0.235634
C23   C     C_R   0.497415 0.737492 0.500603 0.819894
C24   C     C_R   0.432696 0.447483 0.074274 -0.099121
C25   C     C_R   0.432018 0.449170 0.925559 -0.107549
C26   C     C_R   0.574006 0.535322 0.925631 0.212396
C27   C     C_3   0.621315 0.654276 0.911094 -0.546827
C28   C     C_3   0.609179 0.669944 0.068000 0.030272
C29   C     C_R   0.671295 0.499933 0.499971 0.815155
C30   C     C_R   0.814801 0.524003 0.376493 -0.251065
C31   C     C_R   0.768131 0.499137 0.500060 -0.072161
C32   C     C_R   0.814148 0.473132 0.623785 -0.235212
C33   C     C_R   0.906608 0.471234 0.624695 0.069890
C34   C     C_R   0.953492 0.496859 0.500640 0.059538
Cu1   Cu    Cu3+1 0.500000 0.499980 0.640670 0.926960
Cu2   Cu    Cu3+1 0.500000 0.500020 0.359330 0.939642
H1    H     H_    0.779291 0.544665 0.280892 0.140948
H2    H     H_    0.461499 0.882659 0.285902 0.195719
H3    H     H_    0.504305 0.896892 0.843895 0.185955
H4    H     H_    0.406615 0.126412 0.750506 0.122230
H5    H     H_    0.377498 0.406712 0.129525 0.143566
H6    H     H_    0.376194 0.409921 0.870258 0.142796
H7    H     H_    0.691778 0.640533 0.880374 0.163433
H8    H     H_    0.585894 0.721538 0.845377 0.224730
H9    H     H_    0.672781 0.679265 0.125912 0.113270
H10   H     H_    0.778068 0.453167 0.719216 0.150257
H11   H     H_    0.916336 0.422731 0.842577 0.141922
H12   H     H_    0.222662 0.454525 0.718904 0.183922
H13   H     H_    0.221078 0.544999 0.281569 0.151266
H14   H     H_    0.081859 0.573692 0.158743 0.140877
H15   H     H_    0.919403 0.571635 0.157296 0.135295
N1    N     N_R   0.500570 0.500930 0.147930 -0.181088
N2    N     N_R   0.500570 0.500890 0.852020 -0.181893
O1    O     O_R   0.500000 0.319640 0.618810 -0.585654
O2    O     O_R   0.500010 0.319680 0.381230 -0.577739
O3    O     O_R   0.370250 0.499950 0.618800 -0.597286
O4    O     O_R   0.370260 0.499990 0.381220 -0.597782
O5    O     O_R   0.499990 0.680320 0.618770 -0.589074
O6    O     O_R   0.500000 0.680360 0.381190 -0.559564
O7    O     O_R   0.629740 0.500010 0.618780 -0.582205
O8    O     O_R   0.629750 0.500050 0.381200 -0.590427
C35   C     C_3   0.368857 0.892989 0.751784 -0.901862
H16   H     H_    0.333439 0.933189 0.660945 0.242448
H17   H     H_    0.367646 0.791715 0.741804 0.260588
H18   H     H_    0.332983 0.918874 0.848841 0.233634
N3    N     N_2   0.527890 0.128715 0.867788 -0.428210
H19   H     H_    0.513446 0.218609 0.891686 0.268244
C36   C     C_3   0.622543 0.104452 0.866691 -0.683130
H20   H     H_    0.651974 0.136350 0.966786 0.218129
H21   H     H_    0.654855 0.154889 0.779694 0.231915
H22   H     H_    0.636080 0.004969 0.856094 0.221281
N4    N     N_2   0.546278 0.767505 0.101526 -0.390886
H23   H     H_    0.572696 0.853763 0.086543 0.252413
C37   C     C_3   0.453575 0.757166 0.059177 -0.648377
H24   H     H_    0.422416 0.849094 0.056674 0.188902
H25   H     H_    0.415802 0.701945 0.135871 0.254795
H26   H     H_    0.446419 0.716611 0.953717 0.238734
N5    N     N_2   0.090419 0.409506 0.874895 -0.443589
H27   H     H_    0.057015 0.436621 0.963823 0.251749
C38   C     C_3   0.117584 0.282599 0.882894 -0.718234
H28   H     H_    0.058367 0.221745 0.885110 0.232767
H29   H     H_    0.156524 0.268212 0.979967 0.225808
H30   H     H_    0.160007 0.257486 0.792263 0.231832
C39   C     C_3   0.461321 0.119262 0.230353 -0.805928
H31   H     H_    0.519769 0.171156 0.191663 0.254280
H32   H     H_    0.445154 0.050227 0.148837 0.217643
H33   H     H_    0.402728 0.180262 0.240145 0.227395

loop_
_geom_bond_atom_site_label_1
_geom_bond_atom_site_label_2
_ccdc_geom_bond_type
C24   N1    A    
C23   O5    A    
N3    C36   S    
C21   N3    S    
Cu1   N2    S    
C19   C20   S    
C9    H15   S    
C39   H33   S    
Cu2   O6    S    
C7    C8    A    
C23   O6    A    
C26   C27   S    
C37   H25   S    
Cu1   O5    S    
C5    C6    A    
C14   C21   S    
C39   H32   S    
C30   C31   A    
C38   H28   S    
N5    C38   S    
C3    C33   A    
C15   C16   A    
C16   C39   S    
C18   C19   A    
C35   H17   S    
C36   H20   S    
C27   H8    S    
Cu1   Cu2   S    
C8    C9    A    
C37   H26   S    
C1    C15   S    
Cu2   N1    S    
C2    C34   A    
N3    H19   S    
C22   C28   S    
Cu1   O1    S    
C24   H5    S    
C28   N4    S    
C38   H30   S    
C33   C34   A    
C29   O8    A    
C28   H9    S    
C37   H24   S    
C18   C23   S    
C39   H31   S    
N4    C37   S    
Cu2   O4    S    
C20   H3    S    
N5    H27   S    
C4    C5    A    
C6    C34   A    
C30   H1    S    
Cu1   O7    S    
C1    O1    A    
C4    N5    S    
C35   H16   S    
C31   C32   A    
C29   O7    A    
C17   C18   A    
C24   C25   A    
C12   O3    A    
C13   H13   S    
C12   O4    A    
C38   H29   S    
C10   H12   S    
C3    C4    A    
C26   N2    A    
C8    H14   S    
C22   N1    A    
C35   H18   S    
Cu1   O3    S    
C32   H10   S    
C14   C19   A    
C25   N2    A    
N4    H23   S    
C25   H6    S    
C11   C12   S    
C6    C7    A    
C2    C30   A    
C32   C33   A    
C1    O2    A    
C5    C10   A    
C29   C31   S    
Cu2   O2    S    
C11   C13   A    
C16   C17   A    
C21   H4    S    
C36   H22   S    
C3    H11   S    
C17   H2    S    
C20   C35   S    
C10   C11   A    
C27   H7    S    
C7    C13   A    
C20   C21   S    
C36   H21   S    
C22   C26   A    
C27   C28   S    
C14   C15   A    
C2    C9    A    
Cu2   O8    S    
