data_mof_unit_47799.cif
_audit_creation_date              2012-12-10T18:58:12-0500
_audit_creation_method            fapswitch 2.2
_symmetry_space_group_name_H-M    P1
_symmetry_Int_Tables_number       1
_space_group_crystal_system       triclinic
_cell_length_a                    10.603509
_cell_length_b                    10.127599
_cell_length_c                    15.733053
_cell_angle_alpha                 89.401297
_cell_angle_beta                  92.727805
_cell_angle_gamma                 90.155918
_cell_volume                      1687.53172374

loop_
_atom_site_label
_atom_site_type_symbol
_atom_type_description
_atom_site_fract_x
_atom_site_fract_y
_atom_site_fract_z
_atom_type_partial_charge
C1    C     C_R   0.871089 0.500413 0.501871 -0.344397
C2    C     C_R   0.472413 0.379737 0.956326 -0.165461
C3    C     C_R   0.470556 0.499645 0.911770 0.175778
C4    C     C_R   0.468998 0.500956 0.086416 0.171469
C5    C     C_1   0.480876 0.499301 0.823108 -0.044641
C6    C     C_1   0.478996 0.501785 0.175721 -0.034556
C7    C     C_1   0.488975 0.501674 0.250998 -0.110809
C8    C     C_1   0.490619 0.498992 0.748423 -0.098511
C9    C     C_R   0.563120 0.067852 0.562392 0.104531
C10   C     C_R   0.415526 0.930613 0.448578 0.103407
C11   C     C_R   0.433170 0.070831 0.438039 0.113648
C12   C     C_R   0.127833 0.499506 0.498069 -0.345052
C13   C     C_R   0.585347 0.930298 0.549149 0.115893
C14   C     C_R   0.072461 0.488920 0.576872 0.325572
C15   C     C_R   0.925957 0.510999 0.423196 0.328711
C16   C     C_R   0.942253 0.489136 0.578794 0.255742
C17   C     C_R   0.055916 0.510166 0.421105 0.255743
C18   C     C_3   0.572867 0.111965 0.653984 -0.393349
C19   C     C_3   0.698589 0.178652 0.679643 -0.288832
C20   C     C_3   0.707566 0.206531 0.774906 -0.805021
C21   C     C_3   0.295230 0.871441 0.407529 -0.381089
C22   C     C_3   0.314606 0.798770 0.323685 -0.287235
C23   C     C_R   0.260943 0.499911 0.497110 1.011364
C24   C     C_3   0.214625 0.829307 0.253046 -0.828731
C25   C     C_3   0.385269 0.131850 0.353601 -0.395541
C26   C     C_3   0.261542 0.210333 0.358452 -0.273516
C27   C     C_3   0.166435 0.182439 0.284650 -0.844304
C28   C     C_3   0.720271 0.884748 0.565669 -0.379875
C29   C     C_3   0.745963 0.814083 0.651568 -0.323846
C30   C     C_3   0.887129 0.812764 0.676047 -0.770891
C31   C     C_R   0.738654 0.500099 0.502826 1.034761
C32   C     C_R   0.498816 0.500548 0.339883 0.934669
C33   C     C_R   0.499740 0.499530 0.660093 0.953779
C34   C     C_R   0.464533 0.620086 0.953704 -0.156841
C35   C     C_R   0.471627 0.380404 0.044363 -0.160036
C36   C     C_R   0.463698 0.620751 0.041765 -0.166405
Cl1   Cl    Cl    0.165813 0.476395 0.672934 -0.564998
Cl2   Cl    Cl    0.831721 0.524290 0.327353 -0.560544
Cl3   Cl    Cl    0.869318 0.478047 0.677292 -0.660755
Cl4   Cl    Cl    0.125530 0.520686 0.321785 -0.672409
H1    H     H_    0.461886 0.713913 0.074997 0.142424
H2    H     H_    0.490503 0.172848 0.668114 0.236972
H3    H     H_    0.559987 0.025267 0.696404 0.172962
H4    H     H_    0.233506 0.925874 0.222559 0.239108
H5    H     H_    0.218554 0.753284 0.202852 0.282151
H6    H     H_    0.118478 0.828081 0.278190 0.295866
H7    H     H_    0.409470 0.819364 0.299303 0.219851
H8    H     H_    0.306126 0.692919 0.336943 0.286380
H9    H     H_    0.245098 0.811243 0.453612 0.221265
H10   H     H_    0.224476 0.950361 0.395804 0.195924
H11   H     H_    0.211953 0.191780 0.222707 0.266661
H12   H     H_    0.477190 0.286651 0.923257 0.140023
H13   H     H_    0.124718 0.082936 0.291492 0.249622
H14   H     H_    0.087241 0.253592 0.285304 0.311717
H15   H     H_    0.215250 0.189502 0.419106 0.228395
H16   H     H_    0.283980 0.316230 0.354777 0.277554
H17   H     H_    0.460924 0.187012 0.323438 0.214831
H18   H     H_    0.371336 0.053663 0.305696 0.197393
H19   H     H_    0.922687 0.915034 0.685609 0.241566
H20   H     H_    0.904115 0.756680 0.736490 0.293906
H21   H     H_    0.940444 0.765644 0.625457 0.273528
H22   H     H_    0.696988 0.863120 0.703105 0.209664
H23   H     H_    0.463296 0.712758 0.918573 0.142862
H24   H     H_    0.711630 0.711190 0.648095 0.278159
H25   H     H_    0.751498 0.826126 0.511981 0.231799
H26   H     H_    0.783519 0.971933 0.561997 0.175099
H27   H     H_    0.475959 0.287840 0.079602 0.140011
H28   H     H_    0.628242 0.269786 0.792809 0.256049
H29   H     H_    0.704892 0.112540 0.811821 0.242514
H30   H     H_    0.797828 0.257681 0.791856 0.300872
H31   H     H_    0.779295 0.115024 0.665409 0.217143
H32   H     H_    0.707925 0.271672 0.643448 0.286754
N1    N     N_R   0.500000 0.857200 0.500000 -0.120373
N2    N     N_R   0.500000 0.142800 0.500000 -0.120215
O1    O     O_R   0.316770 0.614620 0.499990 -0.622088
O2    O     O_R   0.683230 0.385380 0.500010 -0.608739
O3    O     O_R   0.683230 0.614620 0.500010 -0.622126
O4    O     O_R   0.316770 0.385380 0.499990 -0.619382
O5    O     O_R   0.499980 0.614630 0.378020 -0.625185
O6    O     O_R   0.500020 0.385370 0.621980 -0.623742
O7    O     O_R   0.500020 0.614630 0.621980 -0.620696
O8    O     O_R   0.499980 0.385370 0.378020 -0.632884
Zn1   Zn    Zn3+2 0.500000 0.653120 0.500000 0.959384
Zn2   Zn    Zn3+2 0.500000 0.346880 0.500000 0.959603

loop_
_geom_bond_atom_site_label_1
_geom_bond_atom_site_label_2
_ccdc_geom_bond_type
C2    C35   A    
C22   H8    S    
C4    C36   A    
C19   H31   S    
C19   C20   S    
O6    Zn2   S    
C26   H15   S    
O2    Zn2   S    
C21   H9    S    
C19   H32   S    
C27   H14   S    
C12   C23   S    
C26   C27   S    
C24   H5    S    
C28   C29   S    
C18   H2    S    
C10   N1    A    
C11   C25   S    
C1    C31   S    
C18   C19   S    
C9    C13   A    
C30   H20   S    
C12   C17   A    
C13   C28   S    
C1    C15   A    
C14   C16   A    
C22   H7    S    
C4    C35   A    
C21   C22   S    
C20   H30   S    
C36   H1    S    
C25   H17   S    
C21   H10   S    
O7    Zn1   S    
C27   H11   S    
C31   O3    A    
C10   C21   S    
C4    C6    S    
C23   O1    A    
C3    C34   A    
C25   C26   S    
C17   Cl4   S    
C28   H26   S    
C15   Cl2   S    
C29   C30   S    
C35   H27   S    
C30   H19   S    
C1    C16   A    
C2    H12   S    
C12   C14   A    
O8    Zn2   S    
C24   H4    S    
C22   C24   S    
C20   H29   S    
C25   H18   S    
C15   C17   A    
C29   H22   S    
C7    C32   S    
C13   N1    A    
C20   H28   S    
N2    Zn2   S    
C3    C5    S    
C11   N2    A    
C26   H16   S    
C5    C8    T    
C27   H13   S    
C33   O6    A    
C6    C7    T    
C32   O8    A    
C24   H6    S    
C2    C3    A    
C18   H3    S    
C32   O5    A    
O5    Zn1   S    
O1    Zn1   S    
C31   O2    A    
C34   H23   S    
C28   H25   S    
C34   C36   A    
C8    C33   S    
C23   O4    A    
C29   H24   S    
C10   C11   A    
C16   Cl3   S    
O4    Zn2   S    
C9    C18   S    
C9    N2    A    
C30   H21   S    
O3    Zn1   S    
C33   O7    A    
N1    Zn1   S    
C14   Cl1   S    
