data_mof_unit_30278.cif
_audit_creation_date              2012-12-11T16:22:21-0500
_audit_creation_method            fapswitch 2.2
_symmetry_space_group_name_H-M    P1
_symmetry_Int_Tables_number       1
_space_group_crystal_system       triclinic
_cell_length_a                    19.667701
_cell_length_b                    6.940027
_cell_length_c                    17.777446
_cell_angle_alpha                 90.103632
_cell_angle_beta                  107.944305
_cell_angle_gamma                 89.24307
_cell_volume                      2308.27881652

loop_
_atom_site_label
_atom_site_type_symbol
_atom_type_description
_atom_site_fract_x
_atom_site_fract_y
_atom_site_fract_z
_atom_type_partial_charge
O1    O     O_R   0.561700 0.369960 0.440190 -0.535469
O2    O     O_R   0.061700 0.630040 0.940190 -0.527880
O3    O     O_R   0.413790 0.033680 0.407460 -0.480041
O4    O     O_R   0.913790 0.966320 0.907460 -0.532537
O5    O     O_R   0.438300 0.869760 0.559810 -0.556200
O6    O     O_R   0.938300 0.130240 0.059810 -0.551630
C1    C     C_R   0.386198 0.202870 0.385799 0.828289
C2    C     C_R   0.888218 0.798376 0.883037 0.852761
O7    O     O_R   0.559630 0.039830 0.430710 -0.508942
O8    O     O_R   0.059630 0.960170 0.930710 -0.521170
O9    O     O_R   0.585190 0.875950 0.583220 -0.553133
O10   O     O_R   0.085190 0.124050 0.083220 -0.549192
C3    C     C_R   0.579917 0.207957 0.414205 0.780430
C4    C     C_R   0.080165 0.790465 0.914996 0.807510
O11   O     O_R   0.414810 0.363770 0.416780 -0.529540
O12   O     O_R   0.914810 0.636230 0.916780 -0.508309
O13   O     O_3   0.508210 0.205480 0.550010 -0.410289
O14   O     O_3   0.008210 0.794520 0.050010 -0.398979
V1    V     V_3+5 0.498480 0.928140 0.490720 1.629952
V2    V     V_3+5 0.998480 0.071860 0.990720 1.570872
O15   O     O_R   0.586210 0.546600 0.592540 -0.551482
O16   O     O_R   0.086210 0.453400 0.092540 -0.551342
C5    C     C_R   0.612228 0.714286 0.616098 0.737550
C6    C     C_R   0.111450 0.283428 0.116874 0.717269
O17   O     O_R   0.440370 0.540460 0.569290 -0.552211
O18   O     O_R   0.940370 0.459540 0.069290 -0.552753
C7    C     C_R   0.417458 0.710598 0.583075 0.710370
C8    C     C_R   0.917372 0.292741 0.082939 0.665750
V3    V     V_3+5 0.501520 0.428910 0.509280 1.512050
V4    V     V_3+5 0.001520 0.571090 0.009280 1.528003
O19   O     O_3   0.491790 0.701440 0.449990 -0.316334
O20   O     O_3   0.991790 0.298560 0.949990 -0.315364
C9    C     C_R   0.287381 0.902295 0.689504 -0.147104
C10   C     C_R   0.774276 0.424059 0.182038 -0.150732
H1    H     H_    0.260723 0.034382 0.697352 0.122629
H2    H     H_    0.736680 0.538676 0.183192 0.129159
C11   C     C_R   0.326289 0.894859 0.634788 0.134096
C12   C     C_R   0.818326 0.440517 0.132998 0.129715
C13   C     C_R   0.367658 0.725221 0.632082 -0.095978
C14   C     C_R   0.867046 0.286742 0.131269 -0.062232
C15   C     C_R   0.360993 0.564635 0.677421 -0.194392
C16   C     C_R   0.867359 0.120851 0.177013 -0.204132
H3    H     H_    0.390687 0.433167 0.676261 0.129827
H4    H     H_    0.903244 0.001177 0.176934 0.131383
C17   C     C_R   0.315155 0.568747 0.723855 -0.133066
C18   C     C_R   0.822491 0.107051 0.224392 -0.156218
H5    H     H_    0.306601 0.436400 0.751373 0.105484
H6    H     H_    0.824336 0.977528 0.258765 0.124232
C19   C     C_R   0.279903 0.739674 0.732987 0.085297
C20   C     C_R   0.776403 0.259544 0.228227 0.079847
C21   C     C_R   0.248080 0.676745 0.860920 0.170578
C22   C     C_R   0.734443 0.366397 0.344006 0.175473
C23   C     C_R   0.196021 0.684444 0.900446 -0.271855
C24   C     C_R   0.684847 0.350569 0.386221 -0.166520
H7    H     H_    0.208501 0.626328 0.959809 0.128719
H8    H     H_    0.690684 0.441772 0.437360 0.146528
C25   C     C_R   0.129974 0.778653 0.867459 -0.172660
C26   C     C_R   0.629302 0.216272 0.365273 -0.201705
C27   C     C_R   0.114658 0.864195 0.791990 0.391888
C28   C     C_R   0.623421 0.094324 0.299405 0.450918
C29   C     C_R   0.163414 0.840852 0.749385 -0.256667
C30   C     C_R   0.672867 0.110534 0.257111 -0.250467
H9    H     H_    0.149688 0.899488 0.690122 0.175682
H10   H     H_    0.668045 0.018788 0.206432 0.178716
C31   C     C_R   0.230264 0.748539 0.782170 0.009319
C32   C     C_R   0.728136 0.245024 0.278118 -0.016886
C33   C     C_2   0.739553 0.697750 0.685570 -0.245576
C34   C     C_2   0.218946 0.131721 0.205500 -0.187307
C35   C     C_2   0.672514 0.719412 0.690394 -0.031468
C36   C     C_2   0.167683 0.269854 0.194065 -0.072348
H11   H     H_    0.745820 0.680874 0.627235 0.149740
H12   H     H_    0.218068 0.034498 0.157209 0.141759
C37   C     C_2   0.805453 0.670077 0.754259 0.490223
C38   C     C_2   0.273099 0.088601 0.282386 0.444406
C39   C     C_2   0.822648 0.799752 0.813904 -0.443347
C40   C     C_2   0.324269 0.220193 0.313792 -0.402650
H13   H     H_    0.789122 0.927748 0.807959 0.117388
H14   H     H_    0.320628 0.355761 0.282313 0.182555
C41   C     C_3   0.657609 0.722247 0.769667 -0.370571
C42   C     C_3   0.578721 0.700609 0.763634 -0.749246
H15   H     H_    0.546360 0.821549 0.729065 0.210201
H16   H     H_    0.558040 0.561394 0.735398 0.221789
H17   H     H_    0.572961 0.702936 0.823839 0.220386
H18   H     H_    0.687908 0.602644 0.807369 0.200336
H19   H     H_    0.675798 0.860689 0.799955 0.187707
C43   C     C_3   0.159218 0.398684 0.259741 -0.254391
C44   C     C_3   0.093843 0.343547 0.283716 -0.747305
H20   H     H_    0.044123 0.363124 0.233376 0.208197
H21   H     H_    0.098334 0.191197 0.303672 0.235558
H22   H     H_    0.090098 0.437106 0.333063 0.238676
H23   H     H_    0.206351 0.394852 0.313425 0.215339
H24   H     H_    0.152040 0.549053 0.237750 0.264122
S1    S     S_3+6 0.862869 0.476436 0.747628 0.086441
O21   O     O_2   0.843485 0.405929 0.663709 -0.320431
O22   O     O_2   0.939651 0.536613 0.773891 -0.260645
O23   O     O_3   0.852340 0.296719 0.805781 -0.513112
H25   H     H_    0.869835 0.180848 0.784563 0.391371
S2    S     S_3+6 0.264333 0.858810 0.321514 -0.032689
O24   O     O_2   0.278190 0.709871 0.266482 -0.344475
O25   O     O_2   0.312561 0.817937 0.403427 -0.359734
O26   O     O_3   0.179364 0.840466 0.322053 -0.526077
H26   H     H_    0.177017 0.917178 0.368252 0.330474
C45   C     C_3   0.321868 0.064791 0.578994 -0.345735
C46   C     C_3   0.253799 0.189322 0.561025 -0.755191
H27   H     H_    0.205652 0.097504 0.542407 0.241759
H28   H     H_    0.253052 0.276741 0.612928 0.230855
H29   H     H_    0.251796 0.290681 0.512050 0.228587
H30   H     H_    0.369589 0.155959 0.602310 0.171793
H31   H     H_    0.321691 0.009460 0.520723 0.228585
C47   C     C_3   0.808958 0.620575 0.082125 -0.361341
C48   C     C_3   0.772896 0.576522 0.994719 -0.721850
H32   H     H_    0.805458 0.474491 0.971613 0.228630
H33   H     H_    0.719461 0.513381 0.986309 0.226518
H34   H     H_    0.765776 0.712071 0.959889 0.196389
H35   H     H_    0.774755 0.728895 0.100062 0.176111
H36   H     H_    0.860548 0.693671 0.091013 0.188521
C49   C     C_3   0.322691 0.607018 0.907592 -0.354875
C50   C     C_3   0.376321 0.771083 0.924454 -0.704796
H37   H     H_    0.383601 0.826640 0.869028 0.223947
H38   H     H_    0.357840 0.890731 0.955255 0.231497
H39   H     H_    0.428951 0.717712 0.963100 0.225532
H40   H     H_    0.341353 0.487356 0.877647 0.170994
H41   H     H_    0.322922 0.546971 0.965622 0.185258
C51   C     C_3   0.794791 0.507924 0.373466 -0.355042
C52   C     C_3   0.767263 0.715638 0.360181 -0.701053
H42   H     H_    0.740062 0.741463 0.296358 0.224203
H43   H     H_    0.729188 0.746799 0.393705 0.242881
H44   H     H_    0.812774 0.815825 0.380792 0.220078
H45   H     H_    0.821268 0.483799 0.437718 0.214158
H46   H     H_    0.836711 0.486932 0.344276 0.187770
S3    S     S_3+6 0.037610 0.010566 0.750423 0.076192
O27   O     O_2   0.025317 0.042726 0.663602 -0.305061
O28   O     O_2   0.972721 0.918151 0.761244 -0.297373
O29   O     O_3   0.049481 0.224639 0.796750 -0.448738
H47   H     H_    0.092504 0.278767 0.787306 0.325734
S4    S     S_3+6 0.554009 0.925013 0.265527 -0.004533
O30   O     O_2   0.569980 0.753463 0.319951 -0.337674
O31   O     O_2   0.483827 0.014827 0.264788 -0.335931
O32   O     O_3   0.548232 0.851513 0.173555 -0.517580
H48   H     H_    0.510288 0.753317 0.160514 0.368596

loop_
_geom_bond_atom_site_label_1
_geom_bond_atom_site_label_2
_ccdc_geom_bond_type
C12   C14   A    
C44   H20   S    
S1    O21   D    
O13   V3    S    
C5    C35   S    
C34   C38   S    
C48   H32   S    
C37   S1    S    
O4    C2    A    
S3    O29   S    
V1    O19   S    
C46   H28   S    
C6    C36   S    
C13   C15   A    
C27   S3    S    
O26   H26   S    
C38   C40   D    
C9    C19   A    
C40   H14   S    
O3    C1    A    
C43   H23   S    
S4    O32   S    
C16   C18   A    
C41   H18   S    
C25   C27   A    
C8    C14   S    
C26   C28   A    
C28   C30   A    
C21   C31   A    
C29   H9    S    
O7    C3    A    
C50   H37   S    
C30   H10   S    
C21   C49   S    
O5    C7    A    
O7    V1    S    
O6    C8    A    
C7    C13   S    
C52   H44   S    
O3    V1    S    
C45   H30   S    
C33   C37   S    
C12   C47   S    
C28   S4    S    
C33   H11   S    
C17   H5    S    
C2    O12   A    
V3    O19   S    
C37   C39   D    
C16   H4    S    
C42   H17   S    
C46   H27   S    
C22   C24   A    
O11   V3    S    
C18   H6    S    
C23   H7    S    
O17   V3    S    
C24   H8    S    
C10   C20   A    
C27   C29   A    
C30   C32   A    
C38   S2    S    
O8    C4    A    
O8    V2    S    
C11   C45   S    
C23   C25   A    
C43   C44   S    
C42   H15   S    
C3    C26   S    
O15   V3    S    
C2    C39   S    
C9    C11   A    
C47   C48   S    
C21   C23   A    
C50   H39   S    
C49   H40   S    
C20   C32   S    
C14   C16   A    
C17   C19   A    
C34   H12   S    
O9    V1    S    
O23   H25   S    
O10   V2    S    
O1    V3    S    
C51   H46   S    
C48   H33   S    
C39   H13   S    
O29   H47   S    
C19   C31   S    
O14   V4    S    
S4    O31   D    
O18   V4    S    
S1    O23   S    
S2    O25   D    
C44   H21   S    
C52   H42   S    
C24   C26   A    
O16   C6    A    
C35   C41   S    
O1    C3    A    
O13   V1    S    
S3    O27   D    
C36   C43   S    
C47   H36   S    
C41   H19   S    
C22   C32   A    
V2    O20   S    
C4    C25   S    
O10   C6    A    
O16   V4    S    
C10   C12   A    
C15   H3    S    
S4    O30   D    
S3    O28   D    
O32   H48   S    
C1    C40   S    
O5    V1    S    
O17   C7    A    
S2    O26   S    
O6    V2    S    
C18   C20   A    
O18   C8    A    
C45   H31   S    
O2    V4    S    
O15   C5    A    
C49   H41   S    
C11   C13   A    
C43   H24   S    
C49   C50   S    
V4    O20   S    
C22   C51   S    
C1    O11   A    
O9    C5    A    
C9    H1    S    
C42   H16   S    
C51   H45   S    
C48   H34   S    
O14   V2    S    
O2    C4    A    
C50   H38   S    
C41   C42   S    
O4    V2    S    
C29   C31   A    
C10   H2    S    
S1    O22   D    
S2    O24   D    
C44   H22   S    
C45   C46   S    
C52   H43   S    
C34   C36   D    
C15   C17   A    
C33   C35   D    
O12   V4    S    
C47   H35   S    
C46   H29   S    
C51   C52   S    
