data_mof_unit_14153.cif
_audit_creation_date              2012-12-10T17:24:15-0500
_audit_creation_method            fapswitch 2.2
_symmetry_space_group_name_H-M    P1
_symmetry_Int_Tables_number       1
_space_group_crystal_system       triclinic
_cell_length_a                    10.122197
_cell_length_b                    10.786411
_cell_length_c                    16.413963
_cell_angle_alpha                 91.440419
_cell_angle_beta                  76.339894
_cell_angle_gamma                 95.487283
_cell_volume                      1733.43395815

loop_
_atom_site_label
_atom_site_type_symbol
_atom_type_description
_atom_site_fract_x
_atom_site_fract_y
_atom_site_fract_z
_atom_type_partial_charge
C1    C     C_R   0.557309 0.732791 0.491898 0.946540
C2    C     C_R   0.517386 0.492766 0.344149 0.950272
C3    C     C_R   0.452744 0.456905 0.743052 -0.273159
C4    C     C_R   0.519052 0.453400 0.258173 -0.281619
C5    C     C_R   0.546853 0.488728 0.792433 0.381162
C6    C     C_R   0.433659 0.503334 0.213694 0.399003
C7    C     C_R   0.516539 0.445004 0.874953 -0.255125
C8    C     C_R   0.425531 0.452975 0.135812 -0.258219
C9    C     C_R   0.401830 0.360270 0.905127 -0.015530
C10   C     C_R   0.490482 0.345673 0.105357 -0.044300
C11   C     C_R   0.309966 0.327953 0.855376 -0.245869
C12   C     C_R   0.443442 0.267080 0.502618 0.977156
C13   C     C_R   0.576623 0.297863 0.149343 -0.234329
C14   C     C_R   0.334672 0.375848 0.774924 0.545236
C15   C     C_R   0.592158 0.351623 0.224688 0.539886
C16   C     C_2   0.373082 0.312393 0.991087 0.327391
C17   C     C_2   0.480582 0.290660 0.023476 0.355318
C18   C     C_3   0.780805 0.514343 0.757359 0.109362
C19   C     C_3   0.901063 0.614084 0.748465 -0.402086
C20   C     C_3   0.032934 0.556686 0.749258 -0.845723
C21   C     C_3   0.223928 0.568924 0.276718 0.135296
C22   C     C_3   0.137483 0.618380 0.221931 -0.406131
C23   C     C_2   0.591164 0.864635 0.478217 -0.365517
C24   C     C_3   0.985114 0.592637 0.261720 -0.885096
C25   C     C_3   0.576181 0.132495 0.938253 0.066550
C26   C     C_3   0.573357 0.030106 0.002009 -0.387587
C27   C     C_3   0.554537 0.900684 0.964283 -0.904719
C28   C     C_3   0.188863 0.213839 0.083087 0.029505
C29   C     C_3   0.042679 0.228829 0.131815 -0.270284
C30   C     C_3   0.976161 0.109514 0.178090 -0.942981
C31   C     C_2   0.412465 0.134716 0.495150 -0.363188
C32   C     C_2   0.492288 0.932847 0.469580 -0.143762
C33   C     C_2   0.516250 0.065554 0.467131 -0.125621
C34   C     C_2   0.926347 0.511136 0.507006 -0.157234
C35   C     C_2   0.072204 0.485678 0.495522 -0.156850
C36   C     C_R   0.479469 0.496998 0.655964 0.968989
F1    F     F_    0.672493 0.298920 0.267110 -0.679462
F2    F     F_    0.246064 0.337963 0.726776 -0.669016
H1    H     H_    0.219902 0.264497 0.878557 0.183414
H2    H     H_    0.885904 0.583767 0.549989 0.172274
H3    H     H_    0.114119 0.624604 0.569366 0.168634
H4    H     H_    0.887981 0.379922 0.426849 0.176720
H5    H     H_    0.798076 0.452498 0.701253 0.158529
H6    H     H_    0.777920 0.457611 0.813650 0.152838
H7    H     H_    0.914100 0.665661 0.688952 0.212057
H8    H     H_    0.879613 0.681459 0.801266 0.239295
H9    H     H_    0.025230 0.513455 0.811125 0.274091
H10   H     H_    0.119837 0.630137 0.737701 0.259027
H11   H     H_    0.053296 0.484397 0.699687 0.301049
H12   H     H_    0.631442 0.218078 0.125769 0.188124
H13   H     H_    0.194484 0.611471 0.339960 0.180419
H14   H     H_    0.198815 0.466085 0.285255 0.108950
H15   H     H_    0.162989 0.720492 0.213378 0.237529
H16   H     H_    0.160001 0.573090 0.159347 0.237194
H17   H     H_    0.956841 0.490959 0.270444 0.272622
H18   H     H_    0.925094 0.628244 0.220257 0.268674
H19   H     H_    0.958525 0.640144 0.323486 0.264317
H20   H     H_    0.661939 0.120495 0.883112 0.178853
H21   H     H_    0.481511 0.121447 0.914318 0.120718
H22   H     H_    0.670788 0.039577 0.022690 0.235061
H23   H     H_    0.369371 0.499270 0.099117 0.198089
H24   H     H_    0.487925 0.040042 0.057743 0.207353
H25   H     H_    0.456553 0.888354 0.944359 0.261269
H26   H     H_    0.552747 0.828811 0.011900 0.271171
H27   H     H_    0.640149 0.887118 0.909338 0.267754
H28   H     H_    0.249042 0.189997 0.128249 0.139184
H29   H     H_    0.187001 0.136486 0.036862 0.137247
H30   H     H_    0.043578 0.305813 0.178047 0.228747
H31   H     H_    0.981084 0.253313 0.087734 0.237539
H32   H     H_    0.972335 0.031575 0.132924 0.258281
H33   H     H_    0.870240 0.123591 0.212545 0.304295
H34   H     H_    0.582404 0.477949 0.915775 0.180768
H35   H     H_    0.034434 0.084746 0.223884 0.256597
H36   H     H_    0.621584 0.106137 0.448828 0.201511
H37   H     H_    0.389112 0.891854 0.471405 0.188497
H38   H     H_    0.307418 0.093720 0.513565 0.154107
H39   H     H_    0.694004 0.906056 0.476607 0.149578
H40   H     H_    0.111480 0.410578 0.454369 0.158928
N1    N     N_2   0.846390 0.448330 0.467170 -0.188540
N2    N     N_2   0.153610 0.551670 0.532830 -0.191851
O1    O     O_R   0.430310 0.692580 0.506610 -0.615626
O2    O     O_3   0.364490 0.606000 0.243877 -0.632501
O3    O     O_3   0.600332 0.252284 0.972367 -0.660170
O4    O     O_3   0.244317 0.326824 0.041615 -0.659343
O5    O     O_R   0.569690 0.307420 0.493390 -0.604946
O6    O     O_R   0.652740 0.659410 0.485540 -0.616274
O7    O     O_R   0.347260 0.340590 0.514460 -0.591979
O8    O     O_R   0.375640 0.518570 0.627580 -0.565463
O9    O     O_R   0.624360 0.481430 0.372420 -0.555061
O10   O     O_R   0.598070 0.485390 0.606510 -0.604873
O11   O     O_R   0.401930 0.514610 0.393490 -0.619573
O12   O     O_3   0.659531 0.572865 0.763170 -0.634903
Zn1   Zn    Zn3+2 0.351480 0.522150 0.514070 0.962100
Zn2   Zn    Zn3+2 0.648520 0.477850 0.485930 0.969440

loop_
_geom_bond_atom_site_label_1
_geom_bond_atom_site_label_2
_ccdc_geom_bond_type
C6    O2    S    
C28   O4    S    
C2    C4    S    
C19   C20   S    
C32   H37   S    
C30   H33   S    
C19   H8    S    
C22   H16   S    
C36   O8    A    
C24   H17   S    
C26   C27   S    
C29   C30   S    
C12   O5    A    
C34   H2    S    
C28   C29   S    
C9    C16   S    
C18   C19   S    
C11   C14   A    
C14   F2    S    
C10   C17   S    
C1    O1    A    
C35   N2    D    
C16   O4    S    
C34   C35   S    
O9    Zn2   S    
C15   F1    S    
O6    Zn2   S    
C16   C17   D    
C31   C33   D    
C8    H23   S    
H4    N1    S    
C21   C22   S    
H3    N2    S    
C30   H32   S    
O10   Zn2   S    
C22   H15   S    
C29   H31   S    
C20   H9    S    
C28   H29   S    
N1    Zn2   S    
C4    C6    A    
C7    H34   S    
C5    C7    A    
C30   H35   S    
C24   H19   S    
C6    C8    A    
C25   C26   S    
C17   O3    S    
C2    O9    A    
C28   H28   S    
C20   H11   S    
C27   H27   S    
C18   H6    S    
C34   N1    D    
O11   Zn1   S    
C29   H30   S    
O1    Zn1   S    
O5    Zn2   S    
C23   H39   S    
C11   H1    S    
C9    C11   A    
C20   H10   S    
C3    C14   A    
C27   H25   S    
C1    C23   S    
C13   C15   A    
C12   C31   S    
C22   C24   S    
C25   H20   S    
C21   H13   S    
C36   O10   A    
C1    O6    A    
C7    C9    A    
O8    Zn1   S    
C12   O7    A    
C3    C5    A    
C10   C13   A    
C19   H7    S    
C24   H18   S    
C35   H40   S    
C18   O12   S    
C23   C32   D    
C4    C15   A    
C26   H24   S    
C18   H5    S    
C32   C33   S    
C31   H38   S    
C3    C36   S    
O7    Zn1   S    
C2    O11   A    
C5    O12   S    
C27   H26   S    
C13   H12   S    
C33   H36   S    
C21   O2    S    
C8    C10   A    
C25   O3    S    
C25   H21   S    
N2    Zn1   S    
C26   H22   S    
C21   H14   S    
