data_mof_unit_58381.cif
_audit_creation_date              2012-12-10T16:55:01-0500
_audit_creation_method            fapswitch 2.2
_symmetry_space_group_name_H-M    P1
_symmetry_Int_Tables_number       1
_space_group_crystal_system       triclinic
_cell_length_a                    7.793481
_cell_length_b                    8.570182
_cell_length_c                    15.7321
_cell_angle_alpha                 90.918442
_cell_angle_beta                  85.692504
_cell_angle_gamma                 93.658598
_cell_volume                      1045.60116205

loop_
_atom_site_label
_atom_site_type_symbol
_atom_type_description
_atom_site_fract_x
_atom_site_fract_y
_atom_site_fract_z
_atom_type_partial_charge
C1    C     C_R   0.545710 0.794636 0.497857 0.959932
C2    C     C_2   0.430304 0.041804 0.503533 -0.372149
C3    C     C_R   0.501723 0.500024 0.661477 0.906223
C4    C     C_R   0.454293 0.205367 0.502222 0.960222
C5    C     C_R   0.498216 0.499904 0.338511 0.900061
C6    C     C_3   0.326623 0.569610 0.957336 0.036663
C7    C     C_3   0.655031 0.597080 0.947368 -0.406423
C8    C     C_3   0.651467 0.598972 0.045366 -0.399097
C9    C     C_1   0.494310 0.499589 0.249851 -0.179894
C10   C     C_3   0.496360 0.497596 0.917605 0.203770
C11   C     C_1   0.172737 0.479070 0.929487 0.115254
C12   C     C_3   0.325991 0.566156 0.056521 -0.453478
C13   C     C_1   0.314568 0.732360 0.929105 0.146653
C14   C     C_1   0.646845 0.241761 0.910752 0.198588
C15   C     C_3   0.493155 0.498158 0.083226 0.299857
C16   C     C_3   0.503478 0.328505 0.048890 -0.432202
C17   C     C_3   0.501198 0.326022 0.950517 -0.155414
C18   C     C_1   0.492909 0.498997 0.174623 -0.094311
C19   C     C_1   0.502687 0.498165 0.825453 -0.084250
C20   C     C_1   0.504619 0.498935 0.750133 -0.143296
C21   C     C_2   0.569704 0.958203 0.496678 -0.373921
H1    H     H_    0.315413 0.685541 0.084904 0.169336
H2    H     H_    0.646086 0.721595 0.069423 0.177279
H3    H     H_    0.772658 0.553329 0.065419 0.181970
H4    H     H_    0.383159 0.256506 0.933368 0.153167
H5    H     H_    0.391762 0.253932 0.076876 0.165708
H6    H     H_    0.776023 0.548889 0.920099 0.208888
H7    H     H_    0.212438 0.494364 0.085122 0.167398
H8    H     H_    0.622120 0.278834 0.069711 0.179798
H9    H     H_    0.701365 0.009278 0.490144 0.181722
H10   H     H_    0.298644 0.990729 0.510082 0.182311
H11   H     H_    0.013185 0.381784 0.436500 0.191412
H12   H     H_    0.986815 0.618202 0.563509 0.196659
H13   H     H_    0.657006 0.719037 0.923938 0.187692
N1    N     N_2   0.950340 0.457950 0.477370 -0.172858
N2    N     N_2   0.049660 0.542050 0.522630 -0.170130
N3    N     N_1   0.054059 0.406321 0.907175 -0.202876
N4    N     N_1   0.305305 0.859594 0.907097 -0.210973
N5    N     N_1   0.759554 0.174382 0.879395 -0.179526
O1    O     O_R   0.389240 0.738570 0.505550 -0.612832
O2    O     O_R   0.678400 0.711630 0.491050 -0.630813
O3    O     O_R   0.355360 0.513470 0.630110 -0.605606
O4    O     O_R   0.644510 0.486530 0.615610 -0.618221
O5    O     O_R   0.321600 0.288370 0.508950 -0.628794
O6    O     O_R   0.610760 0.261430 0.494450 -0.612712
O7    O     O_R   0.355490 0.513470 0.384390 -0.623158
O8    O     O_R   0.644640 0.486530 0.369890 -0.613896
Zn1   Zn    Zn3+2 0.306930 0.517990 0.509680 0.955206
Zn2   Zn    Zn3+2 0.693070 0.482010 0.490320 0.951062

loop_
_geom_bond_atom_site_label_1
_geom_bond_atom_site_label_2
_ccdc_geom_bond_type
C6    C10   S    
C15   C18   S    
C2    C4    S    
C3    O3    A    
C1    C21   S    
C7    C10   S    
C21   H9    S    
C19   C20   T    
N1    N2    D    
C12   C15   S    
O6    Zn2   S    
C10   C19   S    
C17   H4    S    
H12   N2    S    
C2    C21   D    
C16   H8    S    
C7    C8    S    
O8    Zn2   S    
O3    Zn1   S    
C6    C13   S    
C5    C9    S    
C5    O8    A    
C14   C17   S    
C3    O4    A    
C13   N4    T    
C12   H7    S    
N1    Zn2   S    
C6    C12   S    
C1    O2    A    
C8    H3    S    
N2    Zn1   S    
C8    C15   S    
C4    O6    A    
C2    H10   S    
C16   H5    S    
C7    H13   S    
O7    Zn1   S    
C10   C17   S    
C15   C16   S    
H11   N1    S    
C12   H1    S    
C9    C18   T    
C3    C20   S    
C8    H2    S    
C7    H6    S    
O1    Zn1   S    
C5    O7    A    
O2    Zn2   S    
C6    C11   S    
C11   N3    T    
O4    Zn2   S    
C4    O5    A    
C1    O1    A    
C14   N5    T    
O5    Zn1   S    
C16   C17   S    
