data_mof_unit_36077.cif
_audit_creation_date              2012-12-11T13:59:56-0500
_audit_creation_method            fapswitch 2.2
_symmetry_space_group_name_H-M    P1
_symmetry_Int_Tables_number       1
_space_group_crystal_system       triclinic
_cell_length_a                    11.234536
_cell_length_b                    11.225853
_cell_length_c                    18.71888
_cell_angle_alpha                 90.257304
_cell_angle_beta                  89.706419
_cell_angle_gamma                 119.89997
_cell_volume                      2046.51565651

loop_
_atom_site_label
_atom_site_type_symbol
_atom_type_description
_atom_site_fract_x
_atom_site_fract_y
_atom_site_fract_z
_atom_type_partial_charge
C1    C     C_R   0.542667 0.478993 0.853012 0.557688
C2    C     C_R   0.449641 0.583645 0.359056 0.543629
C3    C     C_R   0.063649 0.518731 0.352032 0.542401
C4    C     C_R   0.417818 0.870197 0.360066 0.539938
C5    C     C_2   0.893691 0.436504 0.565575 -0.138126
C6    C     C_2   0.502174 0.520645 0.583773 -0.126723
C7    C     C_2   0.479558 0.962102 0.589982 -0.131141
C8    C     C_2   0.437412 0.903404 0.436328 -0.135899
C9    C     C_2   0.459050 0.562917 0.434345 -0.139999
C10   C     C_2   0.976334 0.476514 0.415126 -0.122334
C11   C     C_2   0.971537 0.377748 0.458930 -0.052090
C12   C     C_R   0.521038 0.063942 0.853004 0.558052
C13   C     C_2   0.557771 0.660946 0.475272 -0.078473
C14   C     C_2   0.331600 0.870146 0.482413 -0.076578
C15   C     C_2   0.353236 0.901692 0.560313 -0.055705
C16   C     C_2   0.597068 0.619596 0.540192 -0.051590
C17   C     C_2   0.888876 0.336895 0.523523 -0.073433
C18   C     C_2   0.003146 0.501995 0.921845 -0.109291
C19   C     C_2   0.497884 0.501974 0.921925 -0.109750
C20   C     C_2   0.497663 0.996193 0.921708 -0.109030
C21   C     C_2   0.501969 0.003117 0.078097 -0.109000
C22   C     C_2   0.501960 0.497909 0.078062 -0.109271
C23   C     C_R   0.936007 0.457339 0.853025 0.567475
C24   C     C_2   0.996411 0.497794 0.078274 -0.108780
C25   C     C_2   0.014906 0.604945 0.038484 -0.164711
C26   C     C_2   0.394480 0.410549 0.038109 -0.165339
C27   C     C_2   0.588264 0.981594 0.037464 -0.165914
C28   C     C_2   0.604689 0.014538 0.961430 -0.164733
C29   C     C_2   0.410622 0.394398 0.961948 -0.164486
C30   C     C_2   0.981870 0.588495 0.962469 -0.165053
C31   C     C_1   0.059827 0.317249 0.450601 0.269940
C32   C     C_1   0.653594 0.798778 0.449166 0.247375
C33   C     C_1   0.194123 0.823968 0.455780 0.256131
C34   C     C_R   0.478974 0.542668 0.146983 0.568693
C35   C     C_1   0.233935 0.871353 0.604189 0.265069
C36   C     C_1   0.745332 0.681828 0.549889 0.275001
C37   C     C_1   0.842854 0.198121 0.548916 0.263296
C38   C     C_R   0.063989 0.521072 0.146984 0.561700
C39   C     C_R   0.457313 0.935995 0.146962 0.569731
C40   C     C_R   0.545697 0.480706 0.647743 0.545816
C41   C     C_R   0.516231 0.055680 0.651206 0.551137
C42   C     C_R   0.865177 0.415882 0.641162 0.568075
Cr1   Cr    Cr6+3 0.464030 0.233680 0.750360 1.047349
Cr2   Cr    Cr6+3 0.766320 0.230350 0.750360 1.047225
Cr3   Cr    Cr6+3 0.769650 0.535970 0.750360 1.061111
Cr4   Cr    Cr6+3 0.233680 0.464030 0.249640 1.048961
Cr5   Cr    Cr6+3 0.230350 0.766320 0.249640 1.049323
Cr6   Cr    Cr6+3 0.535970 0.769650 0.249640 1.050881
H1    H     H_    0.913356 0.523126 0.425373 0.122776
H2    H     H_    0.707248 0.058450 0.938825 0.157415
H3    H     H_    0.353105 0.291619 0.939510 0.157798
H4    H     H_    0.935687 0.645418 0.940593 0.157029
H5    H     H_    0.948297 0.394703 0.055870 0.110105
H6    H     H_    0.605016 0.551919 0.055638 0.109305
H7    H     H_    0.448642 0.053173 0.056283 0.109988
H8    H     H_    0.394657 0.948152 0.944171 0.110285
H9    H     H_    0.551823 0.605109 0.944292 0.109092
H10   H     H_    0.053083 0.448531 0.943641 0.109212
H11   H     H_    0.394958 0.459307 0.454229 0.133663
H12   H     H_    0.542146 0.957201 0.454106 0.122269
H13   H     H_    0.562534 0.957204 0.564151 0.120722
H14   H     H_    0.392949 0.471269 0.572810 0.102796
H15   H     H_    0.936833 0.540914 0.546027 0.133371
H16   H     H_    0.058921 0.707597 0.061031 0.157259
H17   H     H_    0.291783 0.352942 0.060609 0.157350
H18   H     H_    0.645040 0.935281 0.059351 0.156551
N1    N     N_1   0.128544 0.267973 0.444387 -0.266278
N2    N     N_1   0.732880 0.907071 0.428576 -0.249157
N3    N     N_1   0.084918 0.791294 0.435534 -0.257345
N4    N     N_1   0.139304 0.847015 0.639217 -0.239289
N5    N     N_1   0.862873 0.732633 0.557224 -0.239099
N6    N     N_1   0.812521 0.089225 0.568888 -0.269386
O1    O     O_R   0.434100 0.092480 0.829780 -0.513637
O2    O     O_R   0.362730 0.477510 0.175360 -0.492452
O3    O     O_R   0.114780 0.637270 0.175360 -0.496760
O4    O     O_R   0.522490 0.885220 0.175360 -0.493578
O5    O     O_R   0.432250 0.092620 0.670380 -0.493369
O6    O     O_R   0.907380 0.339630 0.670380 -0.490731
O7    O     O_R   0.660370 0.567750 0.670380 -0.506374
O8    O     O_R   0.092620 0.432250 0.329620 -0.504888
O9    O     O_R   0.339630 0.907380 0.329620 -0.476352
O10   O     O_R   0.567750 0.660370 0.329620 -0.487231
O11   O     O_R   0.475790 0.362860 0.676880 -0.491969
O12   O     O_R   0.907520 0.341620 0.829780 -0.513385
O13   O     O_R   0.637140 0.112930 0.676880 -0.503457
O14   O     O_R   0.887070 0.524210 0.676880 -0.472767
O15   O     O_R   0.362860 0.475790 0.323120 -0.477439
O16   O     O_R   0.112930 0.637140 0.323120 -0.497930
O17   O     O_R   0.524210 0.887070 0.323120 -0.489920
O18   O     O_3   0.666667 0.333333 0.749450 -0.289953
O19   O     O_3   0.333333 0.666667 0.250550 -0.311153
O20   O     O_R   0.658380 0.565900 0.829780 -0.515622
O21   O     O_R   0.092480 0.434100 0.170220 -0.513740
O22   O     O_R   0.341620 0.907520 0.170220 -0.510215
O23   O     O_R   0.565900 0.658380 0.170220 -0.511848
O24   O     O_R   0.477510 0.362730 0.824640 -0.497347
O25   O     O_R   0.637270 0.114780 0.824640 -0.500474
O26   O     O_R   0.885220 0.522490 0.824640 -0.492388

loop_
_geom_bond_atom_site_label_1
_geom_bond_atom_site_label_2
_ccdc_geom_bond_type
Cr1   O1    S    
C5    C42   S    
Cr6   O23   S    
Cr1   O11   S    
Cr6   O4    S    
C13   C32   S    
C20   H8    S    
C14   C33   S    
C22   H6    S    
C19   H9    S    
C31   N1    T    
Cr4   O15   S    
Cr3   O26   S    
C41   O5    A    
C5    C17   D    
C5    H15   S    
C4    C8    S    
Cr3   O20   S    
C9    C13   D    
C7    H13   S    
C28   H2    S    
C18   H10   S    
C4    O9    A    
C35   N4    T    
Cr6   O19   S    
C24   C38   S    
C18   C30   D    
C36   N5    T    
C33   N3    T    
C32   N2    T    
C7    C15   D    
C21   C27   D    
C11   C31   S    
C12   O1    A    
C40   O11   A    
C37   N6    T    
C3    O8    A    
C15   C35   S    
C38   O3    A    
C22   C34   S    
C1    C19   S    
Cr1   O18   S    
C23   O12   A    
C18   C23   S    
C34   O23   A    
C21   H7    S    
Cr5   O9    S    
Cr4   O19   S    
C20   C28   D    
C24   H5    S    
C9    H11   S    
C25   H16   S    
C39   O22   A    
Cr2   O25   S    
C21   C39   S    
C12   C20   S    
Cr1   O24   S    
C40   O7    A    
C2    O15   A    
Cr3   O7    S    
C17   C37   S    
C39   O4    A    
C24   C25   D    
Cr3   O18   S    
C12   O25   A    
C34   O2    A    
C42   O14   A    
C42   O6    A    
C1    O20   A    
Cr6   O17   S    
C6    C40   S    
C2    O10   A    
Cr2   O13   S    
C19   C29   D    
Cr4   O2    S    
Cr2   O18   S    
C4    O17   A    
C29   H3    S    
C25   C30   S    
C30   H4    S    
C11   C17   S    
C8    C14   D    
C3    O16   A    
C26   H17   S    
Cr5   O19   S    
Cr2   O12   S    
Cr1   O5    S    
C41   O13   A    
Cr5   O16   S    
C6    H14   S    
Cr2   O6    S    
Cr3   O14   S    
Cr5   O3    S    
C3    C10   S    
C8    H12   S    
Cr4   O8    S    
C2    C9    S    
Cr4   O21   S    
C1    O24   A    
C38   O21   A    
Cr5   O22   S    
Cr6   O10   S    
C7    C41   S    
C10   C11   D    
C6    C16   D    
C23   O26   A    
C26   C29   S    
C22   C26   D    
C13   C16   S    
C27   C28   S    
C27   H18   S    
C14   C15   S    
C10   H1    S    
C16   C36   S    
