data_mof_unit_30779.cif
_audit_creation_date              2012-12-10T17:47:38-0500
_audit_creation_method            fapswitch 2.2
_symmetry_space_group_name_H-M    P1
_symmetry_Int_Tables_number       1
_space_group_crystal_system       triclinic
_cell_length_a                    10.654022
_cell_length_b                    10.727848
_cell_length_c                    9.91117
_cell_angle_alpha                 88.978739
_cell_angle_beta                  90.500397
_cell_angle_gamma                 90.992856
_cell_volume                      1132.40428149

loop_
_atom_site_label
_atom_site_type_symbol
_atom_type_description
_atom_site_fract_x
_atom_site_fract_y
_atom_site_fract_z
_atom_type_partial_charge
C1    C     C_R   0.514266 0.261596 0.502318 0.868798
C2    C     C_3   0.878956 0.491431 0.499333 0.090610
C3    C     C_3   0.930586 0.592052 0.595948 -0.356596
C4    C     C_3   0.927754 0.523414 0.354307 -0.431867
C5    C     C_R   0.549381 0.108140 0.758914 -0.137436
C6    C     C_R   0.510745 0.043201 0.874305 -0.185756
C7    C     C_R   0.435939 0.936814 0.861587 -0.118369
C8    C     C_R   0.408474 0.889581 0.733118 0.247181
C9    C     C_R   0.473808 0.939935 0.618525 0.030498
C10   C     C_R   0.522194 0.060821 0.629272 0.079942
C11   C     C_R   0.536782 0.130180 0.508530 -0.158953
C12   C     C_R   0.257915 0.499881 0.499055 0.825409
C13   C     C_R   0.553875 0.071124 0.387246 -0.267929
C14   C     C_R   0.545757 0.943259 0.380937 0.169645
C15   C     C_R   0.498226 0.875968 0.496204 -0.174820
C16   C     C_R   0.333459 0.339898 0.140909 -0.201247
C17   C     C_R   0.254003 0.257229 0.071793 0.190649
C18   C     C_R   0.255153 0.258012 0.931488 -0.242092
C19   C     C_R   0.335009 0.339134 0.861119 -0.197265
C20   C     C_R   0.416929 0.422293 0.928132 0.138094
C21   C     C_R   0.416781 0.422363 0.072632 0.138201
C22   C     C_R   0.582932 0.569113 0.072880 -0.214632
C23   C     C_R   0.497474 0.740892 0.498515 0.898890
C24   C     C_R   0.585195 0.568837 0.930400 -0.082231
C25   C     C_R   0.742149 0.495543 0.500052 0.825253
C26   C     C_3   0.074412 0.368533 0.552126 -0.393427
C27   C     C_3   0.929447 0.359019 0.540502 -0.000882
C28   C     C_3   0.072955 0.601666 0.585868 -0.447830
C29   C     C_3   0.070340 0.517213 0.351280 -0.396364
C30   C     C_3   0.121667 0.496670 0.496789 0.147772
H1    H     H_    0.105758 0.358056 0.659103 0.184968
H2    H     H_    0.898528 0.618610 0.322482 0.190959
H3    H     H_    0.098675 0.693544 0.539453 0.174757
H4    H     H_    0.889047 0.684493 0.571749 0.184132
H5    H     H_    0.577068 0.125498 0.297261 0.170231
H6    H     H_    0.602965 0.193294 0.772915 0.160479
H7    H     H_    0.530974 0.080536 0.973014 0.138368
H8    H     H_    0.393937 0.895039 0.951071 0.123826
H9    H     H_    0.650783 0.623909 0.128737 0.167887
H10   H     H_    0.116805 0.291614 0.494875 0.137964
H11   H     H_    0.328802 0.335306 0.247845 0.216368
H12   H     H_    0.195202 0.194282 0.875710 0.146619
H13   H     H_    0.332126 0.331295 0.754413 0.219191
H14   H     H_    0.905523 0.295229 0.456119 0.146214
H15   H     H_    0.114216 0.595903 0.689286 0.203971
H16   H     H_    0.905740 0.566834 0.701100 0.235125
H17   H     H_    0.109064 0.605510 0.306265 0.186232
H18   H     H_    0.098509 0.439483 0.285805 0.174988
H19   H     H_    0.888356 0.456851 0.279343 0.179442
N1    N     N_R   0.498810 0.498800 0.142780 -0.111263
N2    N     N_R   0.498760 0.498720 0.857170 -0.153974
O1    O     O_R   0.500000 0.316780 0.614690 -0.657318
O2    O     O_R   0.499990 0.316750 0.385360 -0.637536
O3    O     O_R   0.314800 0.499990 0.614670 -0.653651
O4    O     O_R   0.314790 0.499970 0.385330 -0.644005
O5    O     O_R   0.500010 0.683250 0.614640 -0.571286
O6    O     O_R   0.500000 0.683220 0.385310 -0.617611
O7    O     O_R   0.685210 0.500030 0.614670 -0.622844
O8    O     O_R   0.685200 0.500010 0.385330 -0.629678
Zn1   Zn    Zn3+2 0.500010 0.500020 0.653130 0.932135
Zn2   Zn    Zn3+2 0.499990 0.499980 0.346870 0.915746
C31   C     C_3   0.293643 0.806112 0.719448 -0.404885
C32   C     C_3   0.175165 0.875270 0.759373 -0.914223
H20   H     H_    0.179734 0.902873 0.866758 0.265296
H21   H     H_    0.163931 0.960102 0.694721 0.258568
H22   H     H_    0.090814 0.814638 0.746605 0.274012
H23   H     H_    0.280852 0.777448 0.613542 0.187607
H24   H     H_    0.304341 0.721294 0.784292 0.230556
C33   C     C_3   0.596772 0.887450 0.252611 -0.364896
C34   C     C_3   0.728320 0.836735 0.277381 -0.845737
H25   H     H_    0.726426 0.758609 0.351961 0.263865
H26   H     H_    0.767715 0.803753 0.181337 0.247047
H27   H     H_    0.791550 0.911600 0.316203 0.250009
H28   H     H_    0.531732 0.817996 0.207408 0.221378
H29   H     H_    0.606014 0.959800 0.171472 0.180671
C35   C     C_3   0.168094 0.168037 0.148147 -0.426347
C36   C     C_3   0.242412 0.071022 0.228514 -0.872189
H30   H     H_    0.307281 0.021622 0.161365 0.258783
H31   H     H_    0.297147 0.116133 0.310545 0.259836
H32   H     H_    0.176718 0.001572 0.275045 0.247575
H33   H     H_    0.108809 0.220937 0.217973 0.190280
H34   H     H_    0.103772 0.118251 0.077541 0.211534
C37   C     C_2   0.690281 0.640259 0.868047 0.950638
O9    O     O_2   0.670348 0.722425 0.784919 -0.566703
O10   O     O_R   0.813343 0.624078 0.914716 -0.837784
H35   H     H_    0.822125 0.551566 0.980866 0.286145
C38   C     C_3   0.871260 0.298754 0.669610 -0.416029
C39   C     C_3   0.912348 0.163952 0.692780 -0.890672
H36   H     H_    0.886737 0.106575 0.604144 0.265759
H37   H     H_    0.015036 0.159207 0.710873 0.253059
H38   H     H_    0.863956 0.123742 0.782736 0.261868
H39   H     H_    0.895934 0.354181 0.759954 0.223730
H40   H     H_    0.767887 0.294810 0.659287 0.217568

loop_
_geom_bond_atom_site_label_1
_geom_bond_atom_site_label_2
_ccdc_geom_bond_type
C38   C39   S    
C32   H21   S    
C16   C21   A    
C19   C20   A    
C1    C11   S    
C7    C8    A    
O3    Zn1   S    
C36   H30   S    
C26   C27   S    
C31   C32   S    
C31   H23   S    
C29   H17   S    
C3    C28   S    
C24   C37   S    
C13   H5    S    
C20   N2    A    
C18   H12   S    
C5    C6    A    
O7    Zn1   S    
C5    H6    S    
O4    Zn2   S    
C18   C19   A    
C1    O2    A    
O1    Zn1   S    
O2    Zn2   S    
C27   H14   S    
C8    C9    A    
C17   C35   S    
C2    C27   S    
C9    C10   A    
C4    C29   S    
C22   N1    A    
C24   N2    A    
C15   C23   S    
C32   H22   S    
C26   H1    S    
C38   H39   S    
C21   N1    A    
C19   H13   S    
C36   H31   S    
C28   H15   S    
O8    Zn2   S    
C29   H18   S    
C23   O5    A    
C35   C36   S    
C35   H34   S    
C16   C17   A    
C3    H4    S    
O10   H35   S    
O5    Zn1   S    
C2    C4    S    
C29   C30   S    
C37   O9    D    
C39   H38   S    
C34   H27   S    
C17   C18   A    
C6    H7    S    
C33   H28   S    
C39   H36   S    
C27   C38   S    
C4    H2    S    
C37   O10   S    
C39   H37   S    
C28   H3    S    
C26   C30   S    
C14   C33   S    
C22   C24   A    
C25   O7    A    
C34   H25   S    
C36   H32   S    
C23   O6    A    
C12   C30   S    
C35   H33   S    
O6    Zn2   S    
C6    C7    A    
C3    H16   S    
C31   H24   S    
C4    H19   S    
C28   C30   S    
C2    C3    S    
C9    C15   A    
C5    C10   A    
C11   C13   A    
C26   H10   S    
C22   H9    S    
C38   H40   S    
C7    H8    S    
C33   H29   S    
C2    C25   S    
C33   C34   S    
C1    O1    A    
C12   O4    A    
C10   C11   A    
C32   H20   S    
C20   C21   A    
N1    Zn2   S    
C14   C15   A    
C34   H26   S    
N2    Zn1   S    
C25   O8    A    
C13   C14   A    
C16   H11   S    
C12   O3    A    
C8    C31   S    
