data_mof_unit_37629.cif
_audit_creation_date              2012-12-10T16:50:10-0500
_audit_creation_method            fapswitch 2.2
_symmetry_space_group_name_H-M    P1
_symmetry_Int_Tables_number       1
_space_group_crystal_system       triclinic
_cell_length_a                    7.87001
_cell_length_b                    8.54984
_cell_length_c                    10.584333
_cell_angle_alpha                 91.41559
_cell_angle_beta                  85.542158
_cell_angle_gamma                 93.322615
_cell_volume                      708.697389264

loop_
_atom_site_label
_atom_site_type_symbol
_atom_type_description
_atom_site_fract_x
_atom_site_fract_y
_atom_site_fract_z
_atom_type_partial_charge
C1    C     C_R   0.545226 0.794222 0.497567 0.931235
C2    C     C_R   0.454952 0.205866 0.504857 0.984211
C3    C     C_R   0.499391 0.504754 0.261046 0.871577
C4    C     C_R   0.403956 0.783874 0.877808 -0.178961
C5    C     C_R   0.347203 0.913221 0.947981 -0.256460
C6    C     C_R   0.336632 0.912236 0.080233 0.087612
C7    C     C_R   0.387900 0.781008 0.141704 -0.189198
C8    C     C_R   0.444576 0.648336 0.071326 0.038129
C9    C     C_2   0.271167 0.049107 0.152438 0.331369
C10   C     C_3   0.015612 0.381509 0.350347 -0.086160
C11   C     C_3   0.034489 0.493512 0.238383 -0.773688
C12   C     C_R   0.450717 0.649342 0.938869 0.103195
C13   C     C_R   0.507394 0.515714 0.871150 -0.076343
C14   C     C_R   0.564841 0.387459 0.929873 -0.224261
C15   C     C_R   0.561218 0.387082 0.058942 -0.232727
C16   C     C_R   0.499008 0.514397 0.128646 -0.093924
C17   C     C_2   0.569093 0.957825 0.496659 -0.395433
C18   C     C_2   0.431641 0.042429 0.510828 -0.310154
C19   C     C_R   0.502153 0.503865 0.738933 0.845239
H1    H     H_    0.608561 0.286163 0.875653 0.153441
H2    H     H_    0.913907 0.499860 0.192476 0.254546
H3    H     H_    0.077008 0.613681 0.268953 0.269437
H4    H     H_    0.128499 0.449179 0.164433 0.222057
H5    H     H_    0.133411 0.323433 0.362286 0.235238
H6    H     H_    0.922341 0.284662 0.327039 0.162776
H7    H     H_    0.986950 0.603157 0.606424 0.182107
H8    H     H_    0.412180 0.791162 0.775664 0.150776
H9    H     H_    0.310946 0.014283 0.898663 0.135325
H10   H     H_    0.383976 0.784067 0.244009 0.187072
H11   H     H_    0.603971 0.286017 0.104997 0.156957
H12   H     H_    0.699215 0.008038 0.482632 0.186482
H13   H     H_    0.301600 0.992166 0.525332 0.197877
H14   H     H_    0.242794 0.153164 0.103052 0.067391
N1    N     N_2   0.950330 0.457950 0.466250 -0.063091
N2    N     N_2   0.049670 0.542050 0.533750 -0.145762
O1    O     O_R   0.389250 0.738570 0.508280 -0.618404
O2    O     O_R   0.678390 0.711630 0.486650 -0.617429
O3    O     O_R   0.355400 0.513470 0.694050 -0.622198
O4    O     O_R   0.644540 0.486530 0.672420 -0.625543
O5    O     O_R   0.321610 0.288370 0.513350 -0.630367
O6    O     O_R   0.610750 0.261430 0.491720 -0.624893
O7    O     O_R   0.355460 0.513470 0.327580 -0.635112
O8    O     O_R   0.644600 0.486530 0.305950 -0.618336
O9    O     O_2   0.245677 0.046762 0.267523 -0.619067
Zn1   Zn    Zn3+2 0.306930 0.517990 0.514440 0.939934
Zn2   Zn    Zn3+2 0.693070 0.482010 0.485560 0.943531

loop_
_geom_bond_atom_site_label_1
_geom_bond_atom_site_label_2
_ccdc_geom_bond_type
O6    Zn2   S    
C3    O7    A    
C6    C7    A    
N1    Zn2   S    
C19   O3    A    
C2    O5    A    
C2    C18   S    
C5    H9    S    
C11   H3    S    
C1    C17   S    
C1    O2    A    
C8    C12   A    
C6    C9    S    
C17   C18   D    
O1    Zn1   S    
C8    C16   A    
C13   C14   A    
C9    H14   S    
C3    O8    A    
C5    C6    A    
C19   O4    A    
O4    Zn2   S    
C7    H10   S    
C10   H6    S    
C11   H4    S    
O5    Zn1   S    
C17   H12   S    
O8    Zn2   S    
C4    C12   A    
C10   C11   S    
C13   C19   S    
C2    O6    A    
C15   C16   A    
N2    Zn1   S    
C14   H1    S    
H7    N2    S    
C7    C8    A    
C4    H8    S    
C18   H13   S    
C12   C13   A    
C15   H11   S    
C10   N1    S    
N1    N2    D    
C14   C15   A    
C9    O9    D    
C10   H5    S    
O2    Zn2   S    
C11   H2    S    
C3    C16   S    
C1    O1    A    
C4    C5    A    
O3    Zn1   S    
O7    Zn1   S    
