data_mof_unit_17522.cif
_audit_creation_date              2012-12-10T20:41:48-0500
_audit_creation_method            fapswitch 2.2
_symmetry_space_group_name_H-M    P1
_symmetry_Int_Tables_number       1
_space_group_crystal_system       triclinic
_cell_length_a                    15.091497
_cell_length_b                    15.187453
_cell_length_c                    9.861782
_cell_angle_alpha                 90.901338
_cell_angle_beta                  89.399726
_cell_angle_gamma                 90.162865
_cell_volume                      2259.92243461

loop_
_atom_site_label
_atom_site_type_symbol
_atom_type_description
_atom_site_fract_x
_atom_site_fract_y
_atom_site_fract_z
_atom_type_partial_charge
C1    C     C_R   0.378424 0.881350 0.499708 0.911548
C2    C     C_R   0.382431 0.122627 0.500707 0.881696
C3    C     C_R   0.878436 0.381336 0.499707 0.911426
C4    C     C_R   0.882438 0.622633 0.500712 0.881708
C5    C     C_3   0.268656 0.203439 0.751714 -0.511775
C6    C     C_3   0.298249 0.771494 0.749880 -0.484827
C7    C     C_3   0.768300 0.703077 0.751534 -0.511790
C8    C     C_3   0.798511 0.271203 0.749715 -0.484678
C9    C     C_R   0.427584 0.970720 0.072162 0.216119
C10   C     C_R   0.927624 0.470625 0.072158 0.216223
C11   C     C_R   0.575155 0.017522 0.071174 -0.106114
C12   C     C_R   0.075125 0.517647 0.071177 -0.106162
C13   C     C_R   0.575339 0.016580 0.927088 -0.081519
C14   C     C_R   0.075310 0.516708 0.927092 -0.081417
C15   C     C_R   0.427327 0.971359 0.929502 0.223329
C16   C     C_R   0.927374 0.471238 0.929496 0.223515
C17   C     C_3   0.337405 0.011309 0.929616 -0.513575
C18   C     C_3   0.837375 0.511015 0.929561 -0.513598
C19   C     C_3   0.336729 0.007670 0.082962 -0.483005
C20   C     C_3   0.836720 0.507465 0.082918 -0.483043
C21   C     C_R   0.617052 0.122927 0.500201 0.877900
C22   C     C_R   0.621664 0.881722 0.498859 0.910868
C23   C     C_R   0.117055 0.622926 0.500198 0.877936
C24   C     C_R   0.121656 0.381715 0.498859 0.910781
C25   C     C_R   0.300525 0.240051 0.620505 0.101284
C26   C     C_R   0.261113 0.803189 0.619726 0.091083
C27   C     C_R   0.800375 0.739905 0.620604 0.101421
C28   C     C_R   0.761242 0.303064 0.619761 0.091033
C29   C     C_R   0.327526 0.199092 0.499888 -0.075605
C30   C     C_R   0.302673 0.825530 0.498484 -0.104114
C31   C     C_R   0.827550 0.699114 0.499935 -0.075565
C32   C     C_R   0.802712 0.325486 0.498495 -0.104186
C33   C     C_R   0.301841 0.234949 0.375589 -0.199026
C34   C     C_R   0.265989 0.797729 0.374875 -0.205779
C35   C     C_R   0.802041 0.735138 0.375658 -0.199042
C36   C     C_R   0.765956 0.297760 0.374907 -0.205749
C37   C     C_R   0.736465 0.798735 0.374338 -0.207404
C38   C     C_R   0.699867 0.234594 0.375371 -0.187629
C39   C     C_R   0.236267 0.298541 0.374279 -0.207429
C40   C     C_R   0.199918 0.734544 0.375330 -0.187636
C41   C     C_R   0.696607 0.825338 0.497176 -0.082128
C42   C     C_R   0.670780 0.200156 0.499534 -0.137338
C43   C     C_R   0.196593 0.325327 0.497155 -0.082181
C44   C     C_R   0.170775 0.700162 0.499505 -0.137258
C45   C     C_R   0.733797 0.800376 0.619029 0.063987
C46   C     C_R   0.694121 0.242551 0.620546 0.142013
C47   C     C_R   0.233969 0.300547 0.618963 0.064019
C48   C     C_R   0.194029 0.742639 0.620494 0.141956
C49   C     C_3   0.693388 0.769198 0.748919 0.012145
C50   C     C_3   0.721253 0.207165 0.754510 -0.027344
C51   C     C_3   0.193793 0.269622 0.749205 0.012310
C52   C     C_3   0.221046 0.707385 0.754602 -0.027338
H1    H     H_    0.327311 0.209997 0.279456 0.169285
H2    H     H_    0.292425 0.819224 0.278320 0.176768
H3    H     H_    0.827657 0.710315 0.279528 0.169357
H4    H     H_    0.792339 0.319306 0.278352 0.176778
H5    H     H_    0.334946 0.073751 0.132822 0.218308
H6    H     H_    0.288429 0.959230 0.123829 0.209379
H7    H     H_    0.834863 0.573573 0.132694 0.218337
H8    H     H_    0.788482 0.458994 0.123857 0.209400
H9    H     H_    0.713241 0.822002 0.277728 0.172402
H10   H     H_    0.677351 0.208167 0.278993 0.193249
H11   H     H_    0.212897 0.321657 0.277670 0.172539
H12   H     H_    0.177464 0.708060 0.278947 0.193118
H13   H     H_    0.697422 0.819729 0.831444 0.144640
H14   H     H_    0.741747 0.136920 0.749680 0.145014
H15   H     H_    0.198056 0.320302 0.831519 0.144518
H16   H     H_    0.241615 0.637157 0.749947 0.145007
H17   H     H_    0.316133 0.217869 0.834602 0.192895
H18   H     H_    0.363170 0.738302 0.735325 0.221619
H19   H     H_    0.815598 0.717455 0.834660 0.192807
H20   H     H_    0.863378 0.237956 0.734870 0.221565
H21   H     H_    0.246391 0.133902 0.740626 0.228704
H22   H     H_    0.296754 0.822225 0.831707 0.221751
H23   H     H_    0.746140 0.633533 0.740170 0.228707
H24   H     H_    0.797184 0.321847 0.831673 0.221828
H25   H     H_    0.635329 0.033758 0.124793 0.153244
H26   H     H_    0.135272 0.533979 0.124797 0.153229
H27   H     H_    0.635783 0.031330 0.872141 0.150420
H28   H     H_    0.135730 0.531557 0.872151 0.150369
H29   H     H_    0.340903 0.079238 0.893300 0.219045
H30   H     H_    0.286408 0.968963 0.881155 0.215345
H31   H     H_    0.840721 0.578917 0.893110 0.219040
H32   H     H_    0.786461 0.468528 0.881176 0.215405
N1    N     N_R   0.499140 0.000000 0.142800 -0.111401
N2    N     N_R   0.999140 0.500000 0.142800 -0.111431
N3    N     N_R   0.499160 0.000000 0.857150 -0.102997
N4    N     N_R   0.999160 0.500000 0.857150 -0.102964
O1    O     O_R   0.408400 0.908380 0.614690 -0.605684
O2    O     O_R   0.408400 0.091620 0.614690 -0.611016
O3    O     O_R   0.908400 0.408380 0.614690 -0.605665
O4    O     O_R   0.908400 0.591620 0.614690 -0.611000
O5    O     O_R   0.408370 0.908370 0.385350 -0.624949
O6    O     O_R   0.408370 0.091630 0.385350 -0.629478
O7    O     O_R   0.908370 0.408370 0.385350 -0.624949
O8    O     O_R   0.908370 0.591630 0.385350 -0.629434
O9    O     O_R   0.591610 0.091610 0.614650 -0.615631
O10   O     O_R   0.591610 0.908390 0.614650 -0.609394
O11   O     O_R   0.091610 0.591610 0.614650 -0.615667
O12   O     O_R   0.091610 0.408390 0.614650 -0.609233
O13   O     O_R   0.591590 0.091600 0.385310 -0.626835
O14   O     O_R   0.591590 0.908400 0.385310 -0.626166
O15   O     O_R   0.091590 0.591600 0.385310 -0.626880
O16   O     O_R   0.091590 0.408400 0.385310 -0.626204
Zn1   Zn    Zn3+2 0.500010 0.000000 0.653130 0.974413
Zn2   Zn    Zn3+2 0.000010 0.500000 0.653130 0.974495
Zn3   Zn    Zn3+2 0.499980 0.000000 0.346870 0.955977
Zn4   Zn    Zn3+2 0.999980 0.500000 0.346870 0.955978
I1    I     I_    0.566703 0.705277 0.728992 -0.401761
I2    I     I_    0.626496 0.242902 0.909410 -0.422340
I3    I     I_    0.066988 0.205748 0.730231 -0.401730
I4    I     I_    0.126078 0.743135 0.909188 -0.422170

loop_
_geom_bond_atom_site_label_1
_geom_bond_atom_site_label_2
_ccdc_geom_bond_type
O13   Zn3   S    
C23   O11   A    
C13   H27   S    
C6    H18   S    
C22   O10   A    
C2    O6    A    
C8    H24   S    
C7    C27   S    
C19   H5    S    
C28   C46   A    
C33   C39   A    
O10   Zn1   S    
C49   H13   S    
C2    C29   S    
C34   C40   A    
C32   C36   A    
C49   I1    S    
C35   C37   A    
C38   C42   A    
C7    H19   S    
C22   C41   S    
C52   I4    S    
C29   C33   A    
C50   I2    S    
N4    Zn2   S    
C3    O3    A    
C17   H30   S    
C42   C46   A    
C2    O2    A    
C5    H17   S    
C11   H25   S    
C9    N1    A    
C4    O8    A    
C9    C19   S    
C23   O15   A    
C10   C20   S    
C12   H26   S    
C18   H32   S    
O15   Zn4   S    
C14   H28   S    
C20   H8    S    
C25   C47   A    
C40   C44   A    
C17   H29   S    
C52   H16   S    
C26   C48   A    
O9    Zn1   S    
C27   C45   A    
O8    Zn4   S    
C25   C29   A    
O3    Zn2   S    
C6    H22   S    
C19   H6    S    
C33   H1    S    
O6    Zn3   S    
C8    H20   S    
C30   C34   A    
C35   H3    S    
C28   C32   A    
C7    C49   S    
C7    H23   S    
C27   C31   A    
C51   I3    S    
C23   C44   S    
C24   O16   A    
C36   H4    S    
C21   O9    A    
C37   H9    S    
N3    Zn1   S    
C45   C49   S    
C13   N3    A    
C18   H31   S    
O14   Zn3   S    
C16   C18   S    
C51   H15   S    
C20   H7    S    
C50   H14   S    
C5    C25   S    
O4    Zn2   S    
C12   C14   A    
C34   H2    S    
C4    O4    A    
C8    C28   S    
C31   C35   A    
C8    C50   S    
O16   Zn4   S    
C15   N3    A    
C15   C17   S    
O11   Zn2   S    
C10   N2    A    
C1    O1    A    
C24   O12   A    
C5    H21   S    
N2    Zn4   S    
O2    Zn1   S    
C22   O14   A    
C47   C51   S    
C26   C30   A    
C39   H11   S    
C46   C50   S    
O12   Zn2   S    
C40   H12   S    
C12   N2    A    
C36   C38   A    
C9    C15   A    
C14   N4    A    
C21   O13   A    
C10   C16   A    
O5    Zn3   S    
C11   C13   A    
C6    C26   S    
C11   N1    A    
C1    C30   S    
C17   C19   S    
C18   C20   S    
C37   C41   A    
C3    C32   S    
C4    C31   S    
O7    Zn4   S    
C21   C42   S    
C48   C52   S    
C39   C43   A    
C1    O5    A    
O1    Zn1   S    
C16   N4    A    
C24   C43   S    
C41   C45   A    
C5    C51   S    
C3    O7    A    
C6    C52   S    
N1    Zn3   S    
C43   C47   A    
C44   C48   A    
C38   H10   S    
