data_mof_unit_22515.cif
_audit_creation_date              2012-10-26T20:34:04-0400
_audit_creation_method            fapswitch 2.2
_symmetry_space_group_name_H-M    P1
_symmetry_Int_Tables_number       1
_space_group_crystal_system       triclinic
_cell_length_a                    15.894843
_cell_length_b                    9.087432
_cell_length_c                    7.802594
_cell_angle_alpha                 90.477825
_cell_angle_beta                  87.980898
_cell_angle_gamma                 89.277414
_cell_volume                      1126.19965022

loop_
_atom_site_label
_atom_site_type_symbol
_atom_type_description
_atom_site_fract_x
_atom_site_fract_y
_atom_site_fract_z
_atom_type_partial_charge
C1    C     C_R   0.500014 0.220098 0.499576 0.542078
C2    C     C_3   0.058065 0.406894 0.328253 0.197133
C3    C     C_3   0.944754 0.365646 0.651240 0.210009
C4    C     C_3   0.959199 0.414612 0.318551 0.224361
C5    C     C_1   0.749582 0.487001 0.489215 -0.043528
C6    C     C_1   0.250319 0.491345 0.513170 -0.064148
C7    C     C_3   0.083621 0.466206 0.510209 0.013931
C8    C     C_3   0.916501 0.462270 0.495605 0.012942
C9    C     C_3   0.948254 0.621158 0.533432 -0.348109
C10   C     C_3   0.045796 0.625674 0.523450 -0.345318
C11   C     C_3   0.838027 0.179281 0.670300 -0.019107
C12   C     C_1   0.824832 0.474430 0.487516 -0.042799
C13   C     C_3   0.793395 0.247981 0.831423 -0.290131
C14   C     C_3   0.710599 0.171132 0.874749 -0.451516
C15   C     C_3   0.929238 0.157641 0.262162 0.068144
C16   C     C_3   0.967079 0.071839 0.106626 -0.233452
C17   C     C_3   0.002532 0.922583 0.158318 -0.503766
C18   C     C_3   0.118631 0.154310 0.631401 0.060783
C19   C     C_3   0.138739 0.014297 0.730021 -0.282891
C20   C     C_3   0.197721 0.911760 0.624754 -0.494455
C21   C     C_3   0.175049 0.255988 0.215219 -0.007062
C22   C     C_3   0.201210 0.370109 0.079486 -0.287124
C23   C     C_1   0.175113 0.479827 0.517866 -0.064153
C24   C     C_3   0.283204 0.324291 0.985700 -0.434198
C25   C     C_R   0.339746 0.500032 0.503442 0.536171
C26   C     C_R   0.660189 0.498267 0.496907 0.538756
C27   C     C_1   0.499835 0.934636 0.500660 -0.063438
C28   C     C_1   0.499902 0.065418 0.499458 -0.069159
C29   C     C_R   0.499826 0.779927 0.500458 0.552370
C30   C     C_3   0.041901 0.382431 0.669274 0.219082
Cu1   Cu    Cu3+1 0.500000 0.500010 0.669080 0.982796
Cu2   Cu    Cu3+1 0.500000 0.500010 0.330920 0.992788
H1    H     H_    0.068004 0.683890 0.639150 0.131432
H2    H     H_    0.802294 0.203060 0.554363 0.139864
H3    H     H_    0.834315 0.240844 0.942659 0.208831
H4    H     H_    0.778657 0.365901 0.810360 0.159583
H5    H     H_    0.668215 0.177599 0.764749 0.168297
H6    H     H_    0.678862 0.225746 0.987779 0.172794
H7    H     H_    0.722481 0.053833 0.905999 0.140152
H8    H     H_    0.866961 0.110026 0.296032 0.117533
H9    H     H_    0.968631 0.141338 0.372486 0.217579
H10   H     H_    0.918060 0.052717 0.011606 0.154487
H11   H     H_    0.018027 0.135863 0.042675 0.254346
H12   H     H_    0.066896 0.692130 0.411156 0.121181
H13   H     H_    0.052736 0.936683 0.252397 0.151396
H14   H     H_    0.029840 0.863932 0.043646 0.132552
H15   H     H_    0.951386 0.854712 0.214881 0.133662
H16   H     H_    0.178594 0.197715 0.578823 0.147029
H17   H     H_    0.075660 0.122508 0.530766 0.200152
H18   H     H_    0.168981 0.042677 0.851870 0.169316
H19   H     H_    0.079203 0.956191 0.761978 0.161642
H20   H     H_    0.169924 0.884189 0.500113 0.140255
H21   H     H_    0.208307 0.808544 0.696508 0.153630
H22   H     H_    0.259494 0.964943 0.600323 0.150373
H23   H     H_    0.925164 0.658824 0.663137 0.120572
H24   H     H_    0.182085 0.145195 0.154846 0.149014
H25   H     H_    0.220642 0.255784 0.318587 0.126392
H26   H     H_    0.151210 0.383814 0.985624 0.204933
H27   H     H_    0.212243 0.478001 0.142240 0.144321
H28   H     H_    0.333155 0.302158 0.078520 0.169950
H29   H     H_    0.303866 0.415249 0.901796 0.187245
H30   H     H_    0.274134 0.224696 0.905575 0.146057
H31   H     H_    0.922569 0.701355 0.441504 0.127853
H32   H     H_    0.080457 0.488067 0.232160 0.077544
H33   H     H_    0.046762 0.464107 0.775858 0.094327
H34   H     H_    0.948621 0.513554 0.237841 0.103587
H35   H     H_    0.915991 0.414777 0.770871 0.095537
H36   H     H_    0.835667 0.057738 0.683262 0.145333
N1    N     N_1   0.500000 0.499970 0.076820 -0.089600
N2    N     N_1   0.500000 0.499970 0.923180 -0.089845
O1    O     O_R   0.500000 0.288400 0.642760 -0.501479
O2    O     O_3   0.917045 0.306909 0.219059 -0.585488
O3    O     O_3   0.081367 0.258298 0.745210 -0.580653
O4    O     O_3   0.090535 0.264999 0.282783 -0.609817
O5    O     O_R   0.500000 0.288400 0.357240 -0.499936
O6    O     O_R   0.379440 0.500020 0.642850 -0.511949
O7    O     O_R   0.379440 0.500020 0.357150 -0.502500
O8    O     O_R   0.620560 0.500020 0.642850 -0.500511
O9    O     O_R   0.620560 0.500020 0.357150 -0.491694
O10   O     O_R   0.500000 0.711620 0.642810 -0.491458
O11   O     O_R   0.500000 0.711620 0.357190 -0.491288
O12   O     O_3   0.924664 0.213745 0.644228 -0.579525

loop_
_geom_bond_atom_site_label_1
_geom_bond_atom_site_label_2
_ccdc_geom_bond_type
C7    C10   S    
C24   H29   S    
C27   C29   S    
C19   C20   S    
C4    C8    S    
Cu2   O5    S    
Cu1   O10   S    
C21   H25   S    
C15   O2    S    
C1    O1    A    
C25   O7    A    
C17   H13   S    
C13   H3    S    
C6    C25   S    
C15   C16   S    
C18   C19   S    
C14   H7    S    
Cu1   N2    S    
C2    C7    S    
C8    C9    S    
C1    C28   S    
C9    H23   S    
C9    C10   S    
C2    O4    S    
C24   H28   S    
Cu1   O1    S    
Cu2   O7    S    
C7    C30   S    
C13   C14   S    
C2    H32   S    
C11   O12   S    
C10   H12   S    
C1    O5    A    
C17   H14   S    
C15   H9    S    
C13   H4    S    
C20   H22   S    
C3    C8    S    
C22   H27   S    
C30   O3    S    
C16   C17   S    
C21   O4    S    
C3    C30   S    
C2    C4    S    
C29   O11   A    
Cu2   O11   S    
C14   H6    S    
Cu1   Cu2   S    
C8    C12   S    
C3    O12   S    
C26   O8    A    
C16   H11   S    
C5    C12   T    
C18   O3    S    
C22   C24   S    
C16   H10   S    
C4    O2    S    
C11   H36   S    
Cu1   O8    S    
C24   H30   S    
C9    H31   S    
C11   H2    S    
C3    H35   S    
C17   H15   S    
C20   H21   S    
C18   H16   S    
C22   H26   S    
C21   H24   S    
Cu2   N1    S    
C26   O9    A    
C25   O6    A    
C20   H20   S    
C14   H5    S    
C4    H34   S    
C11   C13   S    
C19   H18   S    
Cu1   O6    S    
C29   O10   A    
C7    C23   S    
C6    C23   T    
C10   H1    S    
N1    N2    T    
C15   H8    S    
C30   H33   S    
C5    C26   S    
C19   H19   S    
C27   C28   T    
C21   C22   S    
C18   H17   S    
Cu2   O9    S    
