data_mof_unit_45686.cif
_audit_creation_date              2012-12-11T15:43:57-0500
_audit_creation_method            fapswitch 2.2
_symmetry_space_group_name_H-M    P1
_symmetry_Int_Tables_number       1
_space_group_crystal_system       triclinic
_cell_length_a                    14.552467
_cell_length_b                    16.212164
_cell_length_c                    6.942246
_cell_angle_alpha                 90.000863
_cell_angle_beta                  98.81959
_cell_angle_gamma                 90.00051
_cell_volume                      1618.49707695

loop_
_atom_site_label
_atom_site_type_symbol
_atom_type_description
_atom_site_fract_x
_atom_site_fract_y
_atom_site_fract_z
_atom_type_partial_charge
O1    O     O_R   0.831700 0.662810 0.581550 -0.519045
O2    O     O_R   0.168300 0.337190 0.418450 -0.537120
O3    O     O_R   0.168300 0.162810 0.418450 -0.519048
O4    O     O_R   0.831700 0.837190 0.581550 -0.537159
O5    O     O_R   0.842890 0.834390 0.255500 -0.545630
O6    O     O_R   0.157110 0.165610 0.744500 -0.541728
O7    O     O_R   0.157110 0.334390 0.744500 -0.545694
O8    O     O_R   0.842890 0.665610 0.255500 -0.541790
O9    O     O_R   0.661690 0.835580 0.024130 -0.566545
O10   O     O_R   0.338310 0.164420 0.975870 -0.562478
O11   O     O_R   0.338310 0.335580 0.975870 -0.566560
O12   O     O_R   0.661690 0.664420 0.024130 -0.562475
C1    C     C_R   0.861540 0.867770 0.429468 0.687083
C2    C     C_R   0.130492 0.138871 0.566634 0.717426
C3    C     C_R   0.138455 0.367765 0.570529 0.687091
C4    C     C_R   0.869505 0.638866 0.433362 0.717348
C5    C     C_R   0.052825 0.076873 0.528214 -0.230779
C6    C     C_R   0.922477 0.943846 0.461292 -0.216419
C7    C     C_R   0.947172 0.576866 0.471781 -0.230744
C8    C     C_R   0.077514 0.443835 0.538695 -0.216399
H1    H     H_    0.926533 0.967170 0.157905 0.204174
H2    H     H_    0.041840 0.058034 0.831334 0.205477
H3    H     H_    0.073439 0.467147 0.842076 0.204159
H4    H     H_    0.958142 0.558011 0.168656 0.205486
C9    C     C_R   0.952238 0.986097 0.304813 -0.299816
C10   C     C_R   0.017393 0.039107 0.683018 -0.289872
C11   C     C_R   0.047749 0.486083 0.695172 -0.299812
C12   C     C_R   0.982597 0.539094 0.316973 -0.289930
O13   O     O_3   0.687240 0.750000 0.366320 -0.363039
O14   O     O_3   0.312760 0.250000 0.633680 -0.363051
V1    V     V_3+5 0.757720 0.750000 0.115230 1.426502
V2    V     V_3+5 0.242280 0.250000 0.884770 1.426523
O15   O     O_R   0.650500 0.664000 0.690740 -0.504681
O16   O     O_R   0.349500 0.336000 0.309260 -0.514237
O17   O     O_R   0.349500 0.164000 0.309260 -0.504683
O18   O     O_R   0.650500 0.836000 0.690740 -0.514227
C13   C     C_R   0.628186 0.636109 0.853458 0.646328
C14   C     C_R   0.374156 0.361930 0.146917 0.601132
C15   C     C_R   0.371814 0.136109 0.146541 0.646316
C16   C     C_R   0.625842 0.861928 0.853084 0.601182
C17   C     C_R   0.009081 0.057127 0.336138 0.441511
C18   C     C_R   0.945550 0.980473 0.648561 0.439181
C19   C     C_R   0.990909 0.557112 0.663858 0.441502
C20   C     C_R   0.054430 0.480449 0.351418 0.439180
V3    V     V_3+5 0.735670 0.750000 0.607790 1.542208
V4    V     V_3+5 0.264330 0.250000 0.392210 1.542228
O19   O     O_3   0.806150 0.750000 0.906560 -0.367522
O20   O     O_3   0.193850 0.250000 0.093440 -0.367522
H5    H     H_    0.427445 0.050724 0.852783 0.182371
H6    H     H_    0.567233 0.944806 0.147174 0.180648
H7    H     H_    0.572562 0.550721 0.147215 0.182367
H8    H     H_    0.432773 0.444798 0.852827 0.180644
C21   C     C_2   0.554846 0.928074 0.842611 0.438358
C22   C     C_2   0.441873 0.069124 0.157039 0.441050
C23   C     C_2   0.445155 0.428075 0.157391 0.438411
C24   C     C_2   0.558128 0.569121 0.842959 0.441053
C25   C     C_2   0.532556 0.964321 0.004654 -0.212420
C26   C     C_2   0.462669 0.031637 0.995199 -0.196607
C27   C     C_2   0.467450 0.464317 0.995347 -0.212428
C28   C     C_2   0.537337 0.531633 0.004800 -0.196572
O21   O     O_3   0.016993 0.107851 0.178329 -0.565670
C29   C     C_3   0.969739 0.183517 0.199155 0.110334
H9    H     H_    0.012567 0.223753 0.306971 0.127635
H10   H     H_    0.902159 0.173468 0.253172 0.071355
C30   C     C_3   0.948978 0.228669 0.001927 -0.353204
H11   H     H_    0.989291 0.201288 0.894265 0.217189
H12   H     H_    0.873993 0.223715 0.944149 0.175808
C31   C     C_3   0.969967 0.320435 0.018516 -0.719999
H13   H     H_    0.933896 0.349155 0.131571 0.220526
H14   H     H_    0.946138 0.350964 0.876452 0.216798
H15   H     H_    0.045748 0.329215 0.055928 0.283318
O22   O     O_3   0.900414 0.959709 0.802700 -0.586696
C32   C     C_3   0.807508 0.989163 0.771097 0.131076
H16   H     H_    0.770063 0.955266 0.873144 0.124556
H17   H     H_    0.770499 0.977841 0.620937 0.121582
C33   C     C_3   0.802277 0.080348 0.819256 -0.425458
H18   H     H_    0.833517 0.088870 0.973673 0.221100
H19   H     H_    0.841326 0.116352 0.722361 0.196477
C34   C     C_3   0.702060 0.111176 0.792190 -0.750184
H20   H     H_    0.666942 0.099254 0.641100 0.276454
H21   H     H_    0.701422 0.178604 0.819879 0.227466
H22   H     H_    0.663230 0.080133 0.897122 0.233085
O23   O     O_3   0.982957 0.607802 0.821704 -0.565708
C35   C     C_3   0.030183 0.683495 0.800977 0.110224
H23   H     H_    0.987371 0.723720 0.693057 0.127618
H24   H     H_    0.097824 0.673486 0.747126 0.071455
C36   C     C_3   0.050782 0.728651 0.998225 -0.353117
H25   H     H_    0.010238 0.701376 0.105576 0.217396
H26   H     H_    0.125695 0.723584 0.056470 0.175835
C37   C     C_3   0.029998 0.820439 0.981461 -0.720551
H27   H     H_    0.066330 0.849072 0.868746 0.220534
H28   H     H_    0.053636 0.850966 0.123618 0.216915
H29   H     H_    0.954267 0.829311 0.943459 0.283386
O24   O     O_3   0.099523 0.459641 0.197243 -0.586660
C38   C     C_3   0.192435 0.489086 0.228713 0.130992
H30   H     H_    0.229833 0.455199 0.126564 0.124587
H31   H     H_    0.229492 0.477747 0.378821 0.121651
C39   C     C_3   0.197669 0.580277 0.180638 -0.425525
H32   H     H_    0.166338 0.588835 0.026295 0.221170
H33   H     H_    0.158710 0.616266 0.277726 0.196483
C40   C     C_3   0.297893 0.611081 0.207452 -0.750335
H34   H     H_    0.333106 0.599112 0.358445 0.276530
H35   H     H_    0.298532 0.678516 0.179869 0.227549
H36   H     H_    0.336628 0.580063 0.102319 0.233004
F1    F     F_    0.485757 0.045609 0.335665 -0.623143
F2    F     F_    0.512223 0.952597 0.663815 -0.615797
F3    F     F_    0.514241 0.545606 0.664334 -0.623140
F4    F     F_    0.487778 0.452601 0.336187 -0.615809

loop_
_geom_bond_atom_site_label_1
_geom_bond_atom_site_label_2
_ccdc_geom_bond_type
O6    V2    S    
C36   H25   S    
C40   H34   S    
C23   C27   D    
C19   O23   S    
C32   H16   S    
C38   H30   S    
C33   C34   S    
C17   O21   S    
C37   H27   S    
C38   C39   S    
O2    V4    S    
C1    C6    S    
C5    C10   A    
C35   H24   S    
C6    C18   A    
C15   C22   S    
O12   C13   A    
O15   V3    S    
O4    C1    A    
C29   H10   S    
C13   C24   S    
C21   F2    S    
C14   C23   S    
C31   H13   S    
C30   H12   S    
C35   C36   S    
O16   V4    S    
H3    C11   S    
O5    C1    A    
C22   F1    S    
O7    C3    A    
C27   C28   S    
O8    C4    A    
V1    O19   S    
V2    O20   S    
C2    C5    S    
O21   C29   S    
C6    C9    A    
C8    C20   A    
C7    C19   A    
O4    V3    S    
V3    O19   S    
C4    C7    S    
C3    C8    S    
V4    O20   S    
O18   C16   A    
C35   H23   S    
C9    C17   A    
C34   H21   S    
C21   C25   D    
C12   C20   A    
O9    C16   A    
O15   C13   A    
H5    C26   S    
C24   C28   D    
O13   V3    S    
O10   C15   A    
O11   C14   A    
O17   C15   A    
C24   F3    S    
C29   H9    S    
C7    C12   A    
H8    C27   S    
O10   V2    S    
O6    C2    A    
C37   H28   S    
O23   C35   S    
C30   C31   S    
C18   O22   S    
O18   V3    S    
O1    C4    A    
C33   H18   S    
O2    C3    A    
O3    C2    A    
C31   H14   S    
O11   V2    S    
C39   H32   S    
C40   H36   S    
C39   H33   S    
C36   H26   S    
O12   V1    S    
C32   C33   S    
C32   H17   S    
C10   C18   A    
C37   H29   S    
C22   C26   D    
H1    C9    S    
O7    V2    S    
C29   C30   S    
O16   C14   A    
O8    V1    S    
O14   V4    S    
H4    C12   S    
C33   H19   S    
O22   C32   S    
C34   H22   S    
C38   H31   S    
C8    C11   A    
C39   C40   S    
O3    V4    S    
C23   F4    S    
O13   V1    S    
O14   V2    S    
H6    C25   S    
O1    V3    S    
C25   C26   S    
C31   H15   S    
C30   H11   S    
O24   C38   S    
C5    C17   A    
C20   O24   S    
O9    V1    S    
C34   H20   S    
C11   C19   A    
C40   H35   S    
C16   C21   S    
H2    C10   S    
C36   C37   S    
H7    C28   S    
O17   V4    S    
O5    V1    S    
