data_mof_unit_12172.cif
_audit_creation_date              2013-03-05T15:45:30-0500
_audit_creation_method            fapswitch 2.2
_symmetry_space_group_name_H-M    P1
_symmetry_Int_Tables_number       1
_space_group_crystal_system       triclinic
_cell_length_a                    9.825202
_cell_length_b                    10.952629
_cell_length_c                    13.336204
_cell_angle_alpha                 94.606693
_cell_angle_beta                  81.267623
_cell_angle_gamma                 110.657686
_cell_volume                      1326.73905424

loop_
_atom_site_label
_atom_site_type_symbol
_atom_site_description
_atom_site_fract_x
_atom_site_fract_y
_atom_site_fract_z
_atom_type_partial_charge
O1    O     O_R   0.426290 0.668220 0.490680 -0.547625
O2    O     O_R   0.659360 0.703290 0.520190 -0.558564
C1    C     C_R   0.557337 0.745610 0.503123 0.851551
O3    O     O_R   0.326580 0.473880 0.629020 -0.494375
O4    O     O_R   0.559660 0.508940 0.658530 -0.583813
C2    C     C_R   0.421378 0.485773 0.690736 0.851293
Cu1   Cu    Cu3+1 0.362000 0.479240 0.482530 1.046299
Cu2   Cu    Cu3+1 0.638000 0.520760 0.517470 1.023290
O5    O     O_R   0.340640 0.296710 0.479810 -0.548386
O6    O     O_R   0.573710 0.331780 0.509320 -0.587070
O7    O     O_R   0.440340 0.491060 0.341470 -0.591365
O8    O     O_R   0.673420 0.526120 0.370980 -0.534425
C3    C     C_R   0.446126 0.254553 0.488972 0.871026
C4    C     C_R   0.579181 0.517931 0.309928 0.802927
C5    C     C_R   0.754607 0.725323 0.083097 -0.211160
H1    H     H_    0.761487 0.805214 0.899575 0.181923
H2    H     H_    0.840127 0.818035 0.064020 0.209074
C6    C     C_R   0.629640 0.553832 0.203455 -0.160665
C7    C     C_R   0.238270 0.360842 0.831284 0.260926
C8    C     C_R   0.198000 0.330268 0.934690 0.294570
C9    C     C_R   0.296822 0.393323 0.003512 -0.309202
C10   C     C_R   0.435858 0.485444 0.971960 0.045219
C11   C     C_R   0.463299 0.532713 0.872601 0.037069
C12   C     C_R   0.544113 0.539405 0.038760 0.114446
C13   C     C_R   0.658119 0.659480 0.013652 0.039551
C14   C     C_R   0.674538 0.713626 0.919423 -0.142753
C15   C     C_R   0.581281 0.649413 0.848736 -0.123674
C16   C     C_R   0.544363 0.479290 0.129366 0.060199
C17   C     C_R   0.738022 0.676252 0.179221 0.276705
C18   C     C_R   0.370495 0.463634 0.799992 -0.239595
H3    H     H_    0.261567 0.372657 0.082865 0.208580
H4    H     H_    0.598775 0.695511 0.776830 0.154404
H5    H     H_    0.645469 0.141811 0.481682 0.174122
C19   C     C_2   0.587634 0.885534 0.502375 -0.235119
C20   C     C_2   0.521751 0.938010 0.445252 0.201975
H6    H     H_    0.317106 0.049166 0.456551 0.196402
C21   C     C_2   0.424854 0.116565 0.469803 -0.281760
C22   C     C_2   0.538980 0.075380 0.464768 -0.166283
H7    H     H_    0.660201 0.947040 0.554565 0.136483
H8    H     H_    0.875932 0.420025 0.432398 0.138176
N1    N     N_2   0.845330 0.551960 0.543750 -0.254609
C23   C     C_2   0.923430 0.489686 0.491150 -0.078319
H9    H     H_    0.106940 0.383471 0.400389 0.174774
N2    N     N_2   0.154690 0.448120 0.456210 -0.334902
C24   C     C_2   0.076913 0.511026 0.509480 0.430569
H10   H     H_    0.890351 0.618345 0.599282 0.259188
N3    N     N_R   0.829223 0.753738 0.251900 0.124288
O9    O     O_R   0.916789 0.708751 0.288828 -0.326461
O10   O     O_R   0.847336 0.877247 0.264723 -0.345638
C25   C     C_3   0.436833 0.863174 0.360569 -0.679701
H11   H     H_    0.419823 0.930938 0.310114 0.222254
H12   H     H_    0.499186 0.807412 0.312984 0.213012
H13   H     H_    0.327447 0.795653 0.391663 0.266309
N4    N     N_R   0.137572 0.603275 0.587555 0.146925
O11   O     O_R   0.101464 0.567720 0.681423 -0.319049
O12   O     O_R   0.181868 0.727158 0.569638 -0.374012
C26   C     C_3   0.476041 0.332977 0.143183 -0.780871
H14   H     H_    0.552771 0.297270 0.175124 0.229955
H15   H     H_    0.372469 0.308529 0.196504 0.240908
H16   H     H_    0.456276 0.278659 0.069860 0.256453
N5    N     N_R   0.152992 0.279238 0.757408 0.159687
O13   O     O_R   0.044340 0.304973 0.730598 -0.265458
O14   O     O_R   0.186871 0.180884 0.714745 -0.344740
N6    N     N_R   0.060679 0.231157 0.970360 0.145535
O15   O     O_R   0.945682 0.206745 0.924485 -0.282961
O16   O     O_R   0.046676 0.171268 0.053816 -0.343513

loop_
_geom_bond_atom_site_label_1
_geom_bond_atom_site_label_2
_geom_bond_distance
_ccdc_geom_bond_type
C8    N6    1.442122 S    
O4    Cu2   1.917625 S    
C25   H12   1.111188 S    
N1    H10   1.028997 S    
C5    H2    1.084645 S    
C21   C22   1.339591 D    
C11   C15   1.409494 A    
N1    C23   1.294255 D    
C4    C6    1.468009 S    
C3    C21   1.457552 S    
N3    O9    1.300871 A    
Cu2   O8    1.933587 S    
N6    O15   1.301103 A    
C8    C9    1.399193 A    
C7    C8    1.409060 A    
H8    C23   1.085181 S    
O2    C1    1.298265 A    
C26   H14   1.111321 S    
Cu1   Cu2   2.693899 S    
N3    O10   1.301181 A    
C6    C17   1.412056 A    
O1    Cu1   1.938355 S    
C16   C26   1.517723 S    
Cu2   N1    2.023760 S    
Cu1   O7    1.917625 S    
C9    H3    1.078427 S    
C14   C15   1.387069 A    
O4    C2    1.300721 A    
C17   N3    1.434459 S    
O3    Cu1   1.933589 S    
H5    C22   1.087721 S    
O3    C2    1.300716 A    
H6    C21   1.086905 S    
C2    C18   1.477086 S    
O8    C4    1.298794 A    
C24   N4    1.433446 S    
C5    C17   1.394343 A    
C20   C25   1.516003 S    
N4    O12   1.300527 A    
H9    N2    1.030854 S    
H1    C14   1.084196 S    
N5    O13   1.300496 A    
C7    N5    1.432615 S    
O7    C4    1.298780 A    
C10   C12   1.426127 A    
C26   H15   1.109736 S    
C25   H13   1.107735 S    
C5    C13   1.397653 A    
C15   H4    1.081912 S    
C19   H7    1.087691 S    
C11   C18   1.416041 A    
C20   C22   1.459746 S    
C6    C16   1.408539 A    
C12   C13   1.419103 A    
Cu2   O6    1.938357 S    
C19   C20   1.346208 D    
N4    O11   1.300229 A    
Cu1   O5    1.933063 S    
O5    C3    1.299019 A    
C10   C11   1.414129 A    
C26   H16   1.109289 S    
C25   H11   1.110606 S    
C1    C19   1.455018 S    
Cu1   N2    2.023911 S    
C13   C14   1.395561 A    
C9    C10   1.407960 A    
C7    C18   1.417146 A    
C23   C24   1.497500 S    
N5    O14   1.300760 A    
O2    Cu2   1.933061 S    
N2    C24   1.300534 D    
C12   C16   1.422484 A    
O1    C1    1.294629 A    
O6    C3    1.295665 A    
N6    O16   1.301932 A    
