data_mof_unit_15762.cif
_audit_creation_date              2012-12-10T16:56:31-0500
_audit_creation_method            fapswitch 2.2
_symmetry_space_group_name_H-M    P1
_symmetry_Int_Tables_number       1
_space_group_crystal_system       triclinic
_cell_length_a                    10.76132
_cell_length_b                    10.922568
_cell_length_c                    9.67313
_cell_angle_alpha                 91.217592
_cell_angle_beta                  90.456056
_cell_angle_gamma                 90.314715
_cell_volume                      1136.68082192

loop_
_atom_site_label
_atom_site_type_symbol
_atom_type_description
_atom_site_fract_x
_atom_site_fract_y
_atom_site_fract_z
_atom_type_partial_charge
C1    C     C_R   0.498410 0.265283 0.498145 0.847261
C2    C     C_3   0.878419 0.503167 0.503793 0.016759
C3    C     C_3   0.930414 0.622896 0.436962 -0.144693
C4    C     C_3   0.925770 0.392618 0.414692 -0.510484
C5    C     C_2   0.510609 0.931261 0.391329 -0.402361
C6    C     C_2   0.526600 0.868023 0.507712 0.267764
C7    C     C_2   0.532288 0.064578 0.388328 0.512748
C8    C     C_2   0.486994 0.133420 0.493010 -0.337751
C9    C     C_2   0.447848 0.414162 0.919778 -0.091715
C10   C     C_2   0.440954 0.418505 0.075460 -0.048337
C11   C     C_R   0.259876 0.498695 0.499686 0.773508
C12   C     C_R   0.505350 0.735256 0.502073 0.795094
C13   C     C_R   0.740216 0.500569 0.500946 0.821507
C14   C     C_3   0.074498 0.486160 0.649807 -0.445275
C15   C     C_3   0.931507 0.486758 0.654283 0.364870
C16   C     C_3   0.074473 0.622494 0.443839 -0.404845
C17   C     C_3   0.069099 0.392211 0.410378 -0.397010
C18   C     C_3   0.122137 0.499543 0.500141 0.084940
Cu1   Cu    Cu3+1 0.500030 0.500020 0.638630 0.950398
Cu2   Cu    Cu3+1 0.499970 0.499980 0.361370 0.948217
H1    H     H_    0.112621 0.562561 0.715750 0.186964
H2    H     H_    0.889068 0.397272 0.307044 0.196629
H3    H     H_    0.111954 0.637465 0.338537 0.171400
H4    H     H_    0.903329 0.619460 0.325537 0.111111
H5    H     H_    0.479479 0.886203 0.295899 0.141018
H6    H     H_    0.437306 0.092102 0.577258 0.123983
H7    H     H_    0.406142 0.335609 0.866610 0.154174
H8    H     H_    0.528614 0.577633 0.896096 0.188235
H9    H     H_    0.386374 0.348212 0.124711 0.157882
H10   H     H_    0.108802 0.399057 0.693789 0.132306
H11   H     H_    0.555547 0.561447 0.107669 0.192039
H12   H     H_    0.898182 0.395722 0.690100 0.071052
H13   H     H_    0.110534 0.698749 0.511496 0.168049
H14   H     H_    0.100110 0.400584 0.301461 0.183953
H15   H     H_    0.104376 0.303477 0.448844 0.163167
H16   H     H_    0.891730 0.304914 0.457638 0.172413
N1    N     N_2   0.498630 0.498660 0.846910 -0.286501
N2    N     N_2   0.498590 0.498630 0.153040 -0.283195
O1    O     O_R   0.500020 0.321960 0.617040 -0.599257
O2    O     O_R   0.499980 0.321920 0.382900 -0.521104
O3    O     O_R   0.317710 0.500000 0.617070 -0.588273
O4    O     O_R   0.317670 0.499960 0.382930 -0.586418
O5    O     O_R   0.500020 0.678080 0.617100 -0.581437
O6    O     O_R   0.499980 0.678040 0.382960 -0.600153
O7    O     O_R   0.682330 0.500040 0.617070 -0.519053
O8    O     O_R   0.682290 0.500000 0.382930 -0.595897
O9    O     O_3   0.587659 0.924186 0.620472 -0.551735
C19   C     C_3   0.522301 0.908630 0.745305 0.112696
H17   H     H_    0.552705 0.823257 0.795556 0.187084
H18   H     H_    0.419465 0.906917 0.729586 0.106470
C20   C     C_3   0.554685 0.013785 0.845106 -0.830451
H19   H     H_    0.527066 0.102788 0.801437 0.249200
H20   H     H_    0.505098 0.001621 0.944137 0.204921
H21   H     H_    0.656350 0.015124 0.865590 0.262120
O10   O     O_3   0.585994 0.120819 0.275201 -0.570399
C21   C     C_3   0.682866 0.049588 0.218450 0.081845
H22   H     H_    0.643778 0.973809 0.152737 0.143803
H23   H     H_    0.743624 0.011099 0.300403 0.166738
C22   C     C_3   0.763189 0.130534 0.128969 -0.793448
H24   H     H_    0.808978 0.202765 0.194118 0.241567
H25   H     H_    0.835783 0.074535 0.077252 0.205406
H26   H     H_    0.705216 0.174940 0.049068 0.255041
O11   O     O_3   0.889448 0.580243 0.746579 -0.525219
C23   C     C_3   0.916219 0.553098 0.886703 0.081557
H27   H     H_    0.972886 0.629400 0.932050 0.158307
H28   H     H_    0.969906 0.467225 0.901698 0.101281
C24   C     C_3   0.796295 0.544057 0.967445 -0.782298
H29   H     H_    0.740281 0.465319 0.927142 0.251701
H30   H     H_    0.817530 0.529593 0.078440 0.192531
H31   H     H_    0.742690 0.630054 0.957726 0.240915
C25   C     C_2   0.880091 0.744097 0.491870 0.850072
O12   O     O_2   0.801744 0.748436 0.582504 -0.529483
O13   O     O_R   0.923163 0.852692 0.434615 -0.794781
H32   H     H_    0.884886 0.928158 0.479385 0.330882

loop_
_geom_bond_atom_site_label_1
_geom_bond_atom_site_label_2
_ccdc_geom_bond_type
C3    C25   S    
O10   C21   S    
C21   C22   S    
C11   C18   S    
Cu1   N1    S    
C16   H13   S    
C16   H3    S    
C1    C8    S    
Cu2   N2    S    
C9    C10   S    
C14   C18   S    
Cu2   O4    S    
O9    C19   S    
H11   N2    S    
C7    O10   S    
C10   N2    D    
C24   H31   S    
C23   H27   S    
C20   H21   S    
Cu1   Cu2   S    
C4    H16   S    
C17   C18   S    
C22   H24   S    
C12   O6    A    
C13   O7    A    
C2    C15   S    
C2    C13   S    
C10   H9    S    
C3    H4    S    
C5    C6    D    
Cu1   O1    S    
H8    N1    S    
C14   H10   S    
C5    H5    S    
C2    C4    S    
C14   H1    S    
C19   H18   S    
C19   H17   S    
Cu2   O6    S    
Cu1   O5    S    
C11   O3    A    
C12   O5    A    
C2    C3    S    
O13   H32   S    
C6    C12   S    
C13   O8    A    
Cu2   O2    S    
C22   H25   S    
C7    C8    D    
C17   H14   S    
C4    C17   S    
C20   H20   S    
C24   H29   S    
C23   C24   S    
Cu1   O3    S    
C15   H12   S    
C8    H6    S    
C21   H22   S    
C9    H7    S    
C11   O4    A    
C16   C18   S    
C9    N1    D    
C6    O9    S    
C25   O13   S    
C5    C7    S    
C4    H2    S    
C1    O1    A    
C14   C15   S    
C22   H26   S    
C15   O11   S    
C17   H15   S    
C1    O2    A    
C25   O12   D    
C3    C16   S    
C19   C20   S    
Cu2   O8    S    
Cu1   O7    S    
C20   H19   S    
C21   H23   S    
O11   C23   S    
C24   H30   S    
C23   H28   S    
