data_mof_unit_12127.cif
_audit_creation_date              2012-12-10T17:50:31-0500
_audit_creation_method            fapswitch 2.2
_symmetry_space_group_name_H-M    P1
_symmetry_Int_Tables_number       1
_space_group_crystal_system       triclinic
_cell_length_a                    15.709213
_cell_length_b                    10.717564
_cell_length_c                    9.942234
_cell_angle_alpha                 90.485053
_cell_angle_beta                  89.053672
_cell_angle_gamma                 93.352611
_cell_volume                      1670.77927748

loop_
_atom_site_label
_atom_site_type_symbol
_atom_type_description
_atom_site_fract_x
_atom_site_fract_y
_atom_site_fract_z
_atom_type_partial_charge
C1    C     C_R   0.508841 0.261606 0.499860 0.878911
C2    C     C_R   0.549155 0.067808 0.869824 0.598196
C3    C     C_R   0.501969 0.953809 0.875784 -0.237544
C4    C     C_R   0.338040 0.500068 0.500915 0.915724
C5    C     C_R   0.477362 0.890563 0.758438 -0.281654
C6    C     C_R   0.498622 0.941195 0.630204 0.098499
C7    C     C_R   0.528474 0.066107 0.624407 0.043789
C8    C     C_R   0.519855 0.129401 0.501247 -0.114738
C9    C     C_R   0.505310 0.063469 0.381423 -0.213803
C10   C     C_R   0.494062 0.936055 0.383714 -0.219174
C11   C     C_R   0.490970 0.873697 0.506722 -0.109685
C12   C     C_3   0.082521 0.496984 0.502190 0.212839
C13   C     C_R   0.401136 0.320933 0.149045 -0.134791
C14   C     C_R   0.362828 0.216872 0.089871 -0.273636
C15   C     C_R   0.361877 0.207548 0.952727 -0.255235
C16   C     C_R   0.494681 0.739749 0.501672 0.866696
C17   C     C_R   0.396274 0.306533 0.870682 0.575476
C18   C     C_R   0.450187 0.406540 0.930352 0.047255
C19   C     C_R   0.451122 0.409637 0.075111 0.129701
C20   C     C_R   0.546706 0.586645 0.070601 -0.117480
C21   C     C_R   0.546582 0.586812 0.927907 -0.143287
C22   C     C_R   0.661990 0.500359 0.499063 0.894015
C23   C     C_3   0.974986 0.603140 0.557711 -0.167045
C24   C     C_3   0.966441 0.398062 0.569180 -0.168670
C25   C     C_3   0.024901 0.390959 0.442900 -0.167770
C26   C     C_1   0.248943 0.498816 0.502938 -0.187837
C27   C     C_1   0.751020 0.499108 0.497142 -0.188895
C28   C     C_3   0.025901 0.504074 0.628471 -0.163785
C29   C     C_3   0.320568 0.213383 0.685775 -0.327549
C30   C     C_3   0.642348 0.211851 0.980486 -0.333752
C31   C     C_3   0.917325 0.497158 0.498421 0.213429
C32   C     C_3   0.033375 0.596036 0.431455 -0.166286
C33   C     C_3   0.973958 0.490043 0.372149 -0.161710
C34   C     C_1   0.173508 0.497700 0.503354 -0.089114
C35   C     C_1   0.826383 0.497997 0.497007 -0.088729
C36   C     C_R   0.561966 0.124380 0.742440 -0.293931
H1    H     H_    0.047540 0.304234 0.396126 0.128037
H2    H     H_    0.936866 0.317135 0.625355 0.128569
H3    H     H_    0.950565 0.484319 0.267390 0.130360
H4    H     H_    0.062918 0.676985 0.375276 0.129789
H5    H     H_    0.952418 0.689896 0.604515 0.130556
H6    H     H_    0.049324 0.509775 0.733214 0.132512
H7    H     H_    0.501118 0.110138 0.285697 0.210731
H8    H     H_    0.597594 0.213223 0.734685 0.157825
H9    H     H_    0.310048 0.231235 0.577773 0.171124
H10   H     H_    0.355379 0.126228 0.690470 0.163605
H11   H     H_    0.256633 0.203039 0.735340 0.154510
H12   H     H_    0.485599 0.912361 0.972494 0.158406
H13   H     H_    0.621524 0.301110 0.939766 0.173759
H14   H     H_    0.695542 0.175494 0.919115 0.151626
H15   H     H_    0.667151 0.232483 0.082597 0.202260
H16   H     H_    0.438599 0.804766 0.770825 0.194046
H17   H     H_    0.486782 0.886724 0.288613 0.176521
H18   H     H_    0.585046 0.657747 0.123512 0.147667
H19   H     H_    0.389191 0.328815 0.253735 0.213860
H20   H     H_    0.329295 0.145951 0.150915 0.161585
H21   H     H_    0.326718 0.126014 0.913480 0.143507
H22   H     H_    0.584724 0.657986 0.874071 0.156399
N1    N     N_R   0.499210 0.498800 0.142780 -0.111232
N2    N     N_R   0.499180 0.498720 0.857170 -0.113108
O1    O     O_R   0.500000 0.316780 0.614690 -0.570888
O2    O     O_3   0.572739 0.123185 0.992181 -0.619446
O3    O     O_R   0.499990 0.316750 0.385360 -0.647527
O4    O     O_R   0.376780 0.500000 0.614650 -0.539115
O5    O     O_R   0.376770 0.499980 0.385310 -0.649967
O6    O     O_R   0.500010 0.683250 0.614640 -0.632328
O7    O     O_R   0.500000 0.683220 0.385310 -0.622213
O8    O     O_R   0.623230 0.500020 0.614690 -0.625428
O9    O     O_R   0.623220 0.500000 0.385350 -0.609745
O10   O     O_3   0.369141 0.316681 0.739919 -0.554154
Zn1   Zn    Zn3+2 0.500010 0.500020 0.653130 0.971792
Zn2   Zn    Zn3+2 0.499990 0.499980 0.346870 0.937671

loop_
_geom_bond_atom_site_label_1
_geom_bond_atom_site_label_2
_ccdc_geom_bond_type
C14   H20   S    
C30   H15   S    
C1    C8    S    
C7    C36   A    
C7    C8    A    
C33   H3    S    
C12   C28   S    
C18   C19   A    
C5    C6    A    
C3    H12   S    
O7    Zn2   S    
O4    Zn1   S    
C10   H17   S    
C25   H1    S    
C26   C34   T    
C8    C9    A    
C24   H2    S    
C31   C33   S    
C5    H16   S    
C9    C10   A    
C22   O9    A    
N1    Zn2   S    
O1    Zn1   S    
C30   H14   S    
C17   O10   S    
C13   C14   A    
C12   C32   S    
C15   H21   S    
C1    O3    A    
C9    H7    S    
C13   C19   A    
C24   C25   S    
C21   N2    A    
C20   H18   S    
C6    C11   A    
N2    Zn1   S    
C19   N1    A    
C29   H9    S    
C23   C31   S    
O9    Zn2   S    
C11   C16   S    
O6    Zn1   S    
C17   C18   A    
C16   O7    A    
C23   C28   S    
C20   C21   A    
C20   N1    A    
C22   O8    A    
C18   N2    A    
C30   H13   S    
C29   H11   S    
C22   C27   S    
C30   O2    S    
C31   C35   S    
C36   H8    S    
C16   O6    A    
C12   C34   S    
C29   O10   S    
C2    C36   A    
C15   C17   A    
C4    O4    A    
C24   C28   S    
C3    C5    A    
C1    O1    A    
C4    C26   S    
C6    C7    A    
O5    Zn2   S    
C29   H10   S    
C23   H5    S    
C12   C25   S    
C27   C35   T    
C23   C32   S    
C2    C3    A    
C24   C31   S    
C21   H22   S    
C32   C33   S    
C4    O5    A    
O8    Zn1   S    
C28   H6    S    
C32   H4    S    
C10   C11   A    
O3    Zn2   S    
C14   C15   A    
C2    O2    S    
C25   C33   S    
C13   H19   S    
