data_mof_unit_41895.cif
_audit_creation_date              2012-12-11T14:15:37-0500
_audit_creation_method            fapswitch 2.2
_symmetry_space_group_name_H-M    P1
_symmetry_Int_Tables_number       1
_space_group_crystal_system       triclinic
_cell_length_a                    11.202065
_cell_length_b                    12.75311
_cell_length_c                    23.640651
_cell_angle_alpha                 89.944642
_cell_angle_beta                  96.007788
_cell_angle_gamma                 68.050128
_cell_volume                      3112.36415304

loop_
_atom_site_label
_atom_site_type_symbol
_atom_type_description
_atom_site_fract_x
_atom_site_fract_y
_atom_site_fract_z
_atom_type_partial_charge
C1    C     C_R   0.150638 0.616806 0.429296 0.569383
C2    C     C_R   0.570526 0.711430 0.330164 0.195417
C3    C     C_R   0.793181 0.615377 0.305375 0.189166
C4    C     C_R   0.751918 0.658566 0.248759 0.058515
C5    C     C_R   0.622051 0.735118 0.235114 -0.079836
C6    C     C_R   0.579968 0.784254 0.180484 -0.124974
C7    C     C_R   0.788871 0.676286 0.149896 -0.110807
C8    C     C_R   0.835655 0.629053 0.204802 0.252462
C9    C     C_1   0.241890 0.154291 0.123729 -0.015626
C10   C     C_2   0.228195 0.192204 0.233031 0.020061
C11   C     C_2   0.114518 0.221907 0.255926 0.019680
C12   C     C_R   0.749282 0.605295 0.404782 0.523617
C13   C     C_1   0.112577 0.230623 0.316695 -0.042563
C14   C     C_1   0.232198 0.177207 0.172719 -0.048122
C15   C     C_1   0.110127 0.246508 0.366714 -0.011215
C16   C     C_1   0.170683 0.757504 0.125848 -0.006870
C17   C     C_2   0.140118 0.729137 0.234092 0.074379
C18   C     C_2   0.240031 0.658331 0.270161 0.274729
C19   C     C_1   0.222290 0.643621 0.329375 -0.024514
C20   C     C_1   0.157317 0.740932 0.174648 0.036792
C21   C     C_1   0.196361 0.632197 0.376657 0.004105
C22   C     C_1   0.609692 0.765140 0.861825 -0.025113
C23   C     C_R   0.101334 0.283193 0.423621 0.536992
C24   C     C_2   0.627137 0.749753 0.751120 0.267054
C25   C     C_2   0.651359 0.650069 0.725980 0.055899
C26   C     C_1   0.668679 0.643063 0.666304 -0.008620
C27   C     C_1   0.623004 0.757283 0.812055 -0.061398
C28   C     C_1   0.696081 0.630409 0.618291 -0.053968
C29   C     C_R   0.213182 0.159904 0.847443 0.026544
C30   C     C_R   0.114275 0.204222 0.636351 -0.027375
C31   C     C_R   0.028932 0.133611 0.712212 0.228699
C32   C     C_R   0.012244 0.178056 0.656071 0.010879
C33   C     C_R   0.233071 0.168634 0.671014 -0.018658
C34   C     C_R   0.111752 0.598171 0.596139 0.571474
C35   C     C_R   0.228271 0.170091 0.730245 -0.012521
C36   C     C_R   0.127932 0.144167 0.751041 -0.002738
C37   C     C_R   0.126297 0.132939 0.809712 -0.196846
C38   C     C_R   0.292957 0.210732 0.827050 0.245994
C39   C     C_R   0.309972 0.207533 0.768234 -0.004924
C40   C     C_R   0.117701 0.736124 0.860932 0.018703
C41   C     C_R   0.136282 0.617304 0.657500 0.036579
C42   C     C_R   0.278628 0.569236 0.745333 -0.142858
C43   C     C_R   0.258565 0.556594 0.687241 0.220674
C44   C     C_R   0.036256 0.698083 0.686550 -0.063003
C45   C     C_R   0.748160 0.602262 0.565246 0.520746
C46   C     C_R   0.057798 0.709638 0.745883 0.037067
C47   C     C_R   0.179169 0.639023 0.775230 -0.042241
C48   C     C_R   0.204724 0.647315 0.833970 0.219205
C49   C     C_R   0.994344 0.796295 0.835075 -0.176606
C50   C     C_R   0.963865 0.789583 0.777505 0.218977
C51   C     C_R   0.265201 0.110435 0.068781 0.545792
C52   C     C_R   0.600710 0.773743 0.080128 0.532093
C53   C     C_R   0.189626 0.788266 0.069980 0.532685
C54   C     C_R   0.243392 0.111508 0.905937 0.580916
C55   C     C_R   0.573112 0.776942 0.918151 0.539934
C56   C     C_R   0.100166 0.276050 0.584687 0.525587
C57   C     C_R   0.162086 0.783769 0.910142 0.572994
C58   C     C_R   0.662115 0.753362 0.137925 -0.018937
C59   C     C_R   0.701375 0.640846 0.345681 0.009326
C60   C     C_R   0.533421 0.759828 0.275363 -0.058820
Cr1   Cr    Cr6+3 0.189770 0.415650 0.511620 1.038110
Cr2   Cr    Cr6+3 0.930400 0.667320 0.496770 1.002482
Cr3   Cr    Cr6+3 0.879870 0.417010 0.491650 0.984435
Cr4   Cr    Cr6+3 0.149500 0.973980 0.985330 1.011529
Cr5   Cr    Cr6+3 0.457000 0.976510 0.994660 1.047123
Cr6   Cr    Cr6+3 0.411170 0.724270 0.995270 1.081503
H1    H     H_    0.479432 0.840045 0.169664 0.117192
H2    H     H_    0.057761 0.103806 0.826852 0.145394
H3    H     H_    0.849916 0.648504 0.115861 0.129931
H4    H     H_    0.925573 0.859628 0.858465 0.127717
H5    H     H_    0.375317 0.526062 0.766692 0.107531
H6    H     H_    0.433618 0.816505 0.264006 0.153820
O1    O     O_R   0.196340 0.303200 0.448500 -0.512377
O2    O     O_R   0.811960 0.658090 0.547150 -0.537219
O3    O     O_R   0.757930 0.506140 0.547110 -0.518088
O4    O     O_R   0.988670 0.321620 0.556040 -0.514330
O5    O     O_3   0.000020 0.499990 0.500010 -0.268139
O6    O     O_R   0.113660 0.883270 0.047820 -0.522275
O7    O     O_R   0.186930 0.068530 0.043990 -0.500911
O8    O     O_R   0.377770 0.089040 0.054220 -0.502295
O9    O     O_R   0.562800 0.872960 0.056970 -0.504752
O10   O     O_R   0.555390 0.700940 0.062700 -0.501352
O11   O     O_R   0.295020 0.731920 0.049950 -0.484761
O12   O     O_R   0.199310 0.519670 0.454880 -0.492725
O13   O     O_R   0.094290 0.884230 0.921550 -0.544594
O14   O     O_R   0.168980 0.069410 0.926940 -0.521080
O15   O     O_R   0.358400 0.089990 0.927950 -0.445745
O16   O     O_R   0.544850 0.873850 0.939920 -0.502923
O17   O     O_R   0.536020 0.701900 0.936430 -0.486482
O18   O     O_R   0.277070 0.732810 0.932890 -0.426106
O19   O     O_3   0.339220 0.891590 0.991750 -0.267561
O20   O     O_R   0.045660 0.691380 0.441680 -0.498127
O21   O     O_R   0.811930 0.659460 0.430950 -0.481180
O22   O     O_R   0.757900 0.507620 0.421760 -0.525016
O23   O     O_R   0.988630 0.322990 0.439840 -0.502923
O24   O     O_R   0.196380 0.301720 0.573850 -0.512775
O25   O     O_R   0.199350 0.518300 0.571080 -0.420045
O26   O     O_R   0.045700 0.689900 0.567030 -0.546006
C61   C     C_3   0.012902 0.801555 0.256178 -0.268919
C62   C     C_3   0.910556 0.880352 0.210775 -0.306220
C63   C     C_3   0.786231 0.949123 0.236225 -0.449188
H7    H     H_    0.711348 0.000390 0.202013 0.148743
H8    H     H_    0.748255 0.892298 0.257376 0.168625
H9    H     H_    0.804881 0.006852 0.267990 0.147728
H10   H     H_    0.949535 0.938660 0.191882 0.158404
H11   H     H_    0.887754 0.830425 0.176030 0.181756
H12   H     H_    0.971934 0.744867 0.275535 0.210349
H13   H     H_    0.033961 0.854455 0.290190 0.135654
C64   C     C_3   0.682410 0.539991 0.759378 -0.284796
C65   C     C_3   0.825842 0.490651 0.783415 -0.301290
C66   C     C_3   0.858380 0.381198 0.818448 -0.443432
H14   H     H_    0.793747 0.394748 0.852571 0.163261
H15   H     H_    0.847969 0.314399 0.790630 0.172965
H16   H     H_    0.959934 0.352590 0.838620 0.158701
H17   H     H_    0.887529 0.473200 0.747923 0.162481
H18   H     H_    0.849028 0.552538 0.811054 0.173901
H19   H     H_    0.619801 0.553219 0.794335 0.158856
H20   H     H_    0.660471 0.478546 0.731002 0.125882
O27   O     O_3   0.600305 0.846510 0.717921 -0.727073
H21   H     H_    0.578142 0.911216 0.743168 0.319586
O28   O     O_3   0.356443 0.257205 0.866838 -0.690488
H22   H     H_    0.385619 0.310890 0.848202 0.310245
O29   O     O_3   0.939743 0.092934 0.729155 -0.760956
H23   H     H_    0.986012 0.028288 0.756685 0.332963
C67   C     C_3   0.409489 0.248665 0.747349 -0.258027
C68   C     C_3   0.547486 0.172265 0.771789 -0.316127
C69   C     C_3   0.646679 0.215772 0.753291 -0.444972
H24   H     H_    0.655125 0.201178 0.707409 0.183037
H25   H     H_    0.618594 0.307242 0.761185 0.131219
H26   H     H_    0.741443 0.168904 0.778304 0.199254
H27   H     H_    0.558170 0.166667 0.818961 0.199709
H28   H     H_    0.570292 0.085559 0.756942 0.154593
H29   H     H_    0.403910 0.254407 0.700465 0.170797
H30   H     H_    0.388278 0.336791 0.759663 0.126038
C70   C     C_3   0.885491 0.196675 0.620224 -0.216223
C71   C     C_3   0.782251 0.308977 0.634272 -0.278381
C72   C     C_3   0.654420 0.333788 0.596865 -0.420659
H31   H     H_    0.669042 0.334166 0.551134 0.169105
H32   H     H_    0.613751 0.268903 0.605398 0.134978
H33   H     H_    0.584078 0.418189 0.606201 0.187281
H34   H     H_    0.766112 0.306608 0.679583 0.165951
H35   H     H_    0.817276 0.378418 0.629234 0.198973
H36   H     H_    0.896173 0.191380 0.574141 0.142599
H37   H     H_    0.852358 0.127781 0.629721 0.173824
C73   C     C_3   0.356502 0.098222 0.645524 -0.247069
C74   C     C_3   0.337155 0.002485 0.610580 -0.277554
C75   C     C_3   0.455419 0.935590 0.581024 -0.438044
H38   H     H_    0.480939 0.993013 0.553576 0.145709
H39   H     H_    0.538710 0.889516 0.612782 0.209782
H40   H     H_    0.433872 0.872375 0.553911 0.154631
H41   H     H_    0.315760 0.943853 0.639068 0.185341
H42   H     H_    0.254039 0.038004 0.576923 0.160230
H43   H     H_    0.387507 0.152150 0.618397 0.167728
H44   H     H_    0.436526 0.058813 0.679814 0.159784
O30   O     O_3   0.317891 0.576128 0.864829 -0.673716
H45   H     H_    0.336719 0.498681 0.851623 0.309202
O31   O     O_3   0.849050 0.869589 0.752155 -0.720016
H46   H     H_    0.798257 0.918510 0.780694 0.324119
O32   O     O_3   0.358704 0.487192 0.658709 -0.695951
H47   H     H_    0.438589 0.453415 0.685617 0.299659
C76   C     C_3   0.904948 0.767555 0.655312 -0.182116
C77   C     C_3   0.895519 0.884118 0.632758 -0.240301
C78   C     C_3   0.762559 0.948857 0.600342 -0.448302
H48   H     H_    0.735446 0.894064 0.569273 0.163353
H49   H     H_    0.689119 0.979344 0.630823 0.183228
H50   H     H_    0.763561 0.022875 0.576076 0.113165
H51   H     H_    0.913242 0.934825 0.668187 0.237017
H52   H     H_    0.970696 0.875127 0.604117 0.177612
H53   H     H_    0.884364 0.720642 0.621541 0.164366
H54   H     H_    0.823995 0.771189 0.678915 0.232293
O33   O     O_3   0.960903 0.551195 0.212636 -0.676460
H55   H     H_    0.958797 0.483302 0.231991 0.353572
O34   O     O_3   0.476987 0.738977 0.367327 -0.712821
H56   H     H_    0.511532 0.692048 0.403041 0.325617
O35   O     O_3   0.924122 0.555739 0.321147 -0.710119
H57   H     H_    0.937733 0.507693 0.355877 0.338700
C79   C     C_3   0.984899 0.257539 0.219518 -0.247025
C80   C     C_3   0.951042 0.155827 0.202019 -0.304926
C81   C     C_3   0.821006 0.194132 0.164783 -0.442591
H58   H     H_    0.741795 0.246010 0.189421 0.160261
H59   H     H_    0.822867 0.244699 0.126831 0.166566
H60   H     H_    0.800704 0.119499 0.149781 0.148967
H61   H     H_    0.027211 0.097789 0.177788 0.172804
H62   H     H_    0.945703 0.109197 0.240795 0.164704
H63   H     H_    0.907439 0.314646 0.243598 0.145424
H64   H     H_    0.985763 0.307114 0.180937 0.159325
C82   C     C_3   0.356821 0.168971 0.268758 -0.250422
C83   C     C_3   0.380710 0.278961 0.277516 -0.278989
C84   C     C_3   0.511752 0.256515 0.311751 -0.447493
H65   H     H_    0.515831 0.217671 0.354347 0.159582
H66   H     H_    0.591196 0.199023 0.288913 0.148352
H67   H     H_    0.526140 0.337531 0.317607 0.151423
H68   H     H_    0.378474 0.319320 0.235489 0.192849
H69   H     H_    0.303247 0.338877 0.300531 0.192548
H70   H     H_    0.360118 0.127579 0.310606 0.153350
H71   H     H_    0.436584 0.108461 0.247015 0.140004
O36   O     O_3   0.356547 0.596964 0.249942 -0.695365
H72   H     H_    0.417096 0.550351 0.282193 0.326358

loop_
_geom_bond_atom_site_label_1
_geom_bond_atom_site_label_2
_ccdc_geom_bond_type
C67   H30   S    
O33   H55   S    
C78   H48   S    
C1    C21   S    
C68   C69   S    
C56   O4    A    
C82   H71   S    
C6    C58   A    
Cr2   O5    S    
C75   H38   S    
C9    C51   S    
C24   C27   S    
C4    C8    A    
C17   C20   S    
C73   C74   S    
Cr1   O24   S    
C64   H19   S    
O29   H23   S    
Cr6   O18   S    
O34   H56   S    
C1    O12   A    
C61   H13   S    
C72   H32   S    
Cr3   O22   S    
C62   H10   S    
O31   H46   S    
C39   C67   S    
C5    C6    A    
C36   C37   A    
C78   H49   S    
C66   H14   S    
C74   C75   S    
C43   O32   S    
C2    O34   S    
C54   O15   A    
C2    C60   A    
Cr3   O4    S    
C60   H6    S    
C40   C49   A    
C37   H2    S    
Cr3   O23   S    
C34   O25   A    
C79   H63   S    
C17   C18   D    
C18   C19   S    
C55   O16   A    
C84   H66   S    
C16   C53   S    
C62   C63   S    
C71   H35   S    
C34   O26   A    
Cr6   O11   S    
Cr2   O26   S    
C12   C59   S    
O32   H47   S    
Cr1   O5    S    
Cr2   O20   S    
C29   C38   A    
C47   C48   A    
Cr2   O2    S    
C11   C79   S    
O36   H72   S    
C7    C58   A    
C80   H61   S    
C30   C33   A    
C8    O33   S    
C25   C64   S    
C81   H60   S    
C76   H53   S    
C15   C23   S    
C83   H69   S    
C63   H8    S    
Cr5   O8    S    
Cr5   O19   S    
C41   C43   A    
C12   O22   A    
C52   O9    A    
C34   C41   S    
C23   O1    A    
Cr4   O14   S    
C44   C46   A    
C64   H20   S    
Cr5   O15   S    
Cr6   O17   S    
C50   O31   S    
C72   H33   S    
C28   C45   S    
C75   H39   S    
C57   O18   A    
C63   H7    S    
C80   C81   S    
C70   C71   S    
C78   H50   S    
C24   C25   D    
C10   C14   S    
C54   O14   A    
C2    C59   A    
C4    C5    A    
Cr4   O7    S    
Cr1   O1    S    
C25   C26   S    
C30   C56   S    
C31   O29   S    
C79   H64   S    
C65   C66   S    
C45   O2    A    
C35   C36   A    
C84   H67   S    
C35   C39   A    
C9    C14   T    
C69   H25   S    
C71   H34   S    
Cr6   O10   S    
C74   H41   S    
Cr5   O9    S    
O35   H57   S    
C68   H28   S    
C16   C20   T    
C75   H40   S    
C18   O36   S    
C10   C82   S    
C3    C4    A    
C66   H15   S    
C49   H4    S    
C52   O10   A    
C17   C61   S    
O28   H22   S    
C22   C55   S    
C52   C58   S    
C74   H42   S    
C73   H44   S    
C3    O35   S    
C70   H37   S    
C48   O30   S    
C83   H68   S    
C49   C50   A    
C1    O20   A    
C22   C27   T    
C13   C15   T    
C67   C68   S    
C41   C44   A    
C77   H52   S    
C12   O21   A    
C44   C76   S    
C76   H54   S    
C69   H24   S    
C65   H18   S    
Cr4   O13   S    
Cr5   O16   S    
C77   C78   S    
Cr3   O5    S    
C67   H29   S    
C40   C48   A    
C46   C47   A    
C6    H1    S    
C24   O27   S    
C40   C57   S    
C5    C60   A    
C19   C21   T    
Cr4   O6    S    
C31   C32   A    
Cr1   O25   S    
C71   C72   S    
Cr1   O12   S    
C7    H3    S    
C32   C70   S    
O27   H21   S    
Cr6   O19   S    
C81   H58   S    
C63   H9    S    
C61   H12   S    
C72   H31   S    
C46   C50   A    
C26   C28   T    
C61   C62   S    
C53   O11   A    
C45   O3    A    
C29   C54   S    
C53   O6    A    
C69   H26   S    
C73   H43   S    
C82   C83   S    
C55   O17   A    
C76   C77   S    
C64   C65   S    
C30   C32   A    
C11   C13   S    
C38   C39   A    
Cr3   O3    S    
C68   H27   S    
C51   O8    A    
C70   H36   S    
C42   H5    S    
C33   C35   A    
C23   O23   A    
C66   H16   S    
C42   C47   A    
C56   O24   A    
C84   H65   S    
C51   O7    A    
C38   O28   S    
C7    C8    A    
C10   C11   D    
C62   H11   S    
C77   H51   S    
C79   C80   S    
C42   C43   A    
Cr2   O21   S    
C29   C37   A    
O30   H45   S    
C31   C36   A    
C82   H70   S    
Cr4   O19   S    
C65   H17   S    
C57   O13   A    
C83   C84   S    
C80   H62   S    
C33   C73   S    
C81   H59   S    
C3    C59   A    
