data_mof_unit_35410.cif
_audit_creation_date              2012-12-11T14:03:50-0500
_audit_creation_method            fapswitch 2.2
_symmetry_space_group_name_H-M    P1
_symmetry_Int_Tables_number       1
_space_group_crystal_system       triclinic
_cell_length_a                    19.100409
_cell_length_b                    11.176611
_cell_length_c                    18.669224
_cell_angle_alpha                 90.061651
_cell_angle_beta                  89.774047
_cell_angle_gamma                 89.884805
_cell_volume                      3985.42425124

loop_
_atom_site_label
_atom_site_type_symbol
_atom_type_description
_atom_site_fract_x
_atom_site_fract_y
_atom_site_fract_z
_atom_type_partial_charge
C1    C     C_R   0.226885 0.511866 0.637667 0.549349
C2    C     C_R   0.760270 0.469376 0.353538 0.555421
C3    C     C_R   0.726885 0.011866 0.637667 0.549349
C4    C     C_R   0.260270 0.969376 0.353538 0.555421
C5    C     C_2   0.277823 0.829656 0.533288 -0.170256
C6    C     C_2   0.688617 0.906079 0.449351 -0.169029
C7    C     C_2   0.777823 0.329656 0.533288 -0.170256
C8    C     C_2   0.188617 0.406078 0.449351 -0.169030
C9    C     C_R   0.009692 0.653882 0.423637 -0.012416
C10   C     C_R   0.998576 0.672525 0.573261 -0.020376
C11   C     C_R   0.509692 0.153882 0.423637 -0.012416
C12   C     C_R   0.498576 0.172525 0.573261 -0.020376
C13   C     C_R   0.047326 0.860347 0.413847 0.135679
C14   C     C_R   0.006859 0.893592 0.558439 0.152900
C15   C     C_R   0.547326 0.360347 0.413847 0.135679
C16   C     C_R   0.506860 0.393593 0.558439 0.152899
C17   C     C_R   0.031196 0.974918 0.438743 0.164481
C18   C     C_R   0.010383 0.990287 0.510445 0.155917
C19   C     C_R   0.531196 0.474918 0.438742 0.164482
C20   C     C_R   0.510383 0.490287 0.510444 0.155917
C21   C     C_R   0.013377 0.776118 0.531053 -0.029389
C22   C     C_R   0.025877 0.762536 0.456224 -0.048359
C23   C     C_R   0.513377 0.276118 0.531053 -0.029389
C24   C     C_R   0.525877 0.262536 0.456224 -0.048359
C25   C     C_R   0.980312 0.567759 0.538437 -0.000421
C26   C     C_R   0.000937 0.552552 0.467340 0.008803
C27   C     C_R   0.480312 0.067759 0.538437 -0.000421
C28   C     C_R   0.500937 0.052552 0.467340 0.008803
C29   C     C_R   0.946591 0.474121 0.574598 -0.072401
C30   C     C_R   0.006451 0.436200 0.440583 -0.092731
C31   C     C_R   0.446591 0.974122 0.574597 -0.072400
C32   C     C_R   0.506451 0.936201 0.440583 -0.092731
C33   C     C_R   0.943155 0.362574 0.543207 -0.113439
C34   C     C_R   0.975002 0.343052 0.476704 -0.129941
C35   C     C_R   0.443155 0.862574 0.543207 -0.113440
C36   C     C_R   0.475002 0.843053 0.476704 -0.129941
C37   C     C_2   0.237702 0.894855 0.929608 -0.080687
C38   C     C_2   0.743460 0.928002 0.084052 -0.043970
C39   C     C_2   0.737702 0.394855 0.929608 -0.080687
C40   C     C_2   0.243460 0.428002 0.084052 -0.043970
C41   C     C_2   0.248186 0.895717 0.086289 -0.155708
C42   C     C_2   0.744148 0.941004 0.927517 -0.107780
C43   C     C_2   0.748186 0.395717 0.086289 -0.155708
C44   C     C_2   0.244148 0.441004 0.927517 -0.107780
C45   C     C_R   0.227220 0.873850 0.647801 0.537284
C46   C     C_R   0.771277 0.878730 0.349842 0.547003
C47   C     C_R   0.727220 0.373850 0.647801 0.537284
C48   C     C_R   0.271277 0.378730 0.349842 0.547003
C49   C     C_2   0.188843 0.911471 0.050671 -0.103692
C50   C     C_2   0.765627 0.028957 0.971823 -0.081125
C51   C     C_2   0.688843 0.411471 0.050671 -0.103692
C52   C     C_2   0.265627 0.528957 0.971823 -0.081125
C53   C     C_2   0.183477 0.881584 0.975496 0.358898
C54   C     C_2   0.779049 0.010277 0.047429 0.383661
C55   C     C_2   0.683477 0.381584 0.975496 0.358898
C56   C     C_2   0.279049 0.510277 0.047429 0.383661
C57   C     C_2   0.986665 0.664649 0.915443 0.437361
C58   C     C_2   0.927794 0.653988 0.066393 0.421731
C59   C     C_2   0.486665 0.164649 0.915443 0.437361
C60   C     C_2   0.427794 0.153988 0.066393 0.421731
C61   C     C_2   0.945391 0.560597 0.024811 -0.112769
C62   C     C_2   0.958368 0.567873 0.947169 -0.119473
C63   C     C_2   0.445391 0.060597 0.024811 -0.112769
C64   C     C_2   0.458368 0.067872 0.947169 -0.119472
C65   C     C_R   0.029766 0.656590 0.645126 0.521809
C66   C     C_R   0.972372 0.653063 0.353674 0.572425
C67   C     C_R   0.529766 0.156591 0.645126 0.521809
C68   C     C_R   0.472372 0.153063 0.353673 0.572426
C69   C     C_R   0.237820 0.471032 0.852563 0.562711
C70   C     C_R   0.760698 0.463627 0.150790 0.548202
C71   C     C_R   0.737820 0.971032 0.852563 0.562711
C72   C     C_R   0.260698 0.963627 0.150790 0.548202
C73   C     C_R   0.225577 0.869258 0.854750 0.572509
C74   C     C_R   0.771412 0.875368 0.148685 0.591576
C75   C     C_R   0.725578 0.369258 0.854750 0.572509
C76   C     C_R   0.271412 0.375368 0.148685 0.591576
C77   C     C_R   0.027554 0.652569 0.849576 0.559662
C78   C     C_R   0.932606 0.646852 0.144332 0.579414
C79   C     C_R   0.527554 0.152569 0.849576 0.559661
C80   C     C_R   0.432606 0.146852 0.144332 0.579414
C81   C     C_2   0.248556 0.911502 0.576892 -0.106968
C82   C     C_2   0.743204 0.944786 0.410777 -0.124908
C83   C     C_2   0.748556 0.411502 0.576892 -0.106968
C84   C     C_2   0.243204 0.444786 0.410777 -0.124908
C85   C     C_2   0.242934 0.912430 0.420537 -0.117380
C86   C     C_2   0.733968 0.967110 0.565104 -0.122423
C87   C     C_2   0.742934 0.412430 0.420537 -0.117380
C88   C     C_2   0.233969 0.467109 0.565104 -0.122423
C89   C     C_2   0.290772 0.854271 0.458006 -0.173344
C90   C     C_2   0.678269 0.949947 0.522797 -0.160835
C91   C     C_2   0.790772 0.354271 0.458006 -0.173344
C92   C     C_2   0.178269 0.449945 0.522797 -0.160835
Cr1   Cr    Cr6+3 0.113970 0.508630 0.747920 1.023694
Cr2   Cr    Cr6+3 0.886030 0.508630 0.252080 1.019127
Cr3   Cr    Cr6+3 0.613970 0.008630 0.747920 1.023694
Cr4   Cr    Cr6+3 0.386030 0.008630 0.252080 1.019127
Cr5   Cr    Cr6+3 0.269200 0.666740 0.749850 1.005680
Cr6   Cr    Cr6+3 0.730800 0.666740 0.250150 0.989064
Cr7   Cr    Cr6+3 0.769200 0.166740 0.749850 1.005680
Cr8   Cr    Cr6+3 0.230800 0.166740 0.250150 0.989064
Cr9   Cr    Cr6+3 0.112300 0.820070 0.749800 1.086377
Cr10  Cr    Cr6+3 0.887700 0.820070 0.250200 1.084459
Cr11  Cr    Cr6+3 0.612300 0.320070 0.749800 1.086375
Cr12  Cr    Cr6+3 0.387700 0.320070 0.250200 1.084459
H1    H     H_    0.340109 0.828245 0.433879 0.157398
H2    H     H_    0.625468 0.961655 0.543332 0.167915
H3    H     H_    0.840109 0.328245 0.433879 0.157398
H4    H     H_    0.125469 0.461655 0.543332 0.167914
H5    H     H_    0.291410 0.845310 0.063020 0.134952
H6    H     H_    0.729231 0.852685 0.946140 0.099221
H7    H     H_    0.791410 0.345310 0.063020 0.134952
H8    H     H_    0.229231 0.352685 0.946140 0.099221
H9    H     H_    0.289970 0.918433 0.947330 0.032613
H10   H     H_    0.697179 0.886602 0.061211 0.042529
H11   H     H_    0.789970 0.418433 0.947330 0.032613
H12   H     H_    0.197179 0.386602 0.061211 0.042529
H13   H     H_    0.957545 0.474826 0.049135 0.105022
H14   H     H_    0.958837 0.482692 0.919070 0.091937
H15   H     H_    0.457545 0.974827 0.049135 0.105022
H16   H     H_    0.458837 0.982692 0.919070 0.091937
H17   H     H_    0.291588 0.741748 0.552893 0.137940
H18   H     H_    0.655237 0.835091 0.430053 0.139798
H19   H     H_    0.791588 0.241748 0.552893 0.137940
H20   H     H_    0.155238 0.335091 0.430053 0.139798
H21   H     H_    0.192027 0.932206 0.444116 0.124217
H22   H     H_    0.785528 0.945370 0.545739 0.091076
H23   H     H_    0.692027 0.432206 0.444116 0.124217
H24   H     H_    0.285528 0.445368 0.545740 0.091077
H25   H     H_    0.232740 0.999030 0.557408 0.107443
H26   H     H_    0.773536 0.020597 0.429639 0.102394
H27   H     H_    0.732740 0.499030 0.557408 0.107443
H28   H     H_    0.273536 0.520597 0.429639 0.102394
H29   H     H_    0.031565 0.419000 0.389673 0.128187
H30   H     H_    0.923792 0.487117 0.627310 0.121973
H31   H     H_    0.531565 0.919000 0.389673 0.128187
H32   H     H_    0.423792 0.987117 0.627310 0.121973
H33   H     H_    0.915942 0.293218 0.571685 0.126279
H34   H     H_    0.972317 0.259136 0.449586 0.189062
H35   H     H_    0.415942 0.793219 0.571684 0.126279
H36   H     H_    0.472317 0.759136 0.449586 0.189062
H37   H     H_    0.143972 0.955334 0.075316 0.193714
H38   H     H_    0.779844 0.116441 0.950919 0.163534
H39   H     H_    0.643972 0.455334 0.075316 0.193714
H40   H     H_    0.279844 0.616441 0.950919 0.163534
O1    O     O_R   0.043230 0.549300 0.667990 -0.534656
O2    O     O_R   0.956770 0.549300 0.332010 -0.530663
O3    O     O_R   0.543230 0.049300 0.667990 -0.534656
O4    O     O_R   0.456770 0.049300 0.332010 -0.530663
O5    O     O_R   0.262920 0.788600 0.824420 -0.515894
O6    O     O_R   0.737080 0.788600 0.175580 -0.523682
O7    O     O_R   0.762920 0.288600 0.824420 -0.515894
O8    O     O_R   0.237080 0.288600 0.175580 -0.523682
O9    O     O_R   0.167530 0.905110 0.830340 -0.436067
O10   O     O_R   0.832470 0.905110 0.169660 -0.407818
O11   O     O_R   0.667530 0.405110 0.830340 -0.436068
O12   O     O_R   0.332470 0.405110 0.169660 -0.407818
O13   O     O_R   0.054010 0.748440 0.822860 -0.412684
O14   O     O_R   0.945990 0.748440 0.177140 -0.447439
O15   O     O_R   0.554010 0.248440 0.822860 -0.412685
O16   O     O_R   0.445990 0.248440 0.177140 -0.447439
O17   O     O_3   0.165160 0.665150 0.749190 -0.281775
O18   O     O_3   0.834840 0.665150 0.250810 -0.295688
O19   O     O_3   0.665160 0.165150 0.749190 -0.281775
O20   O     O_3   0.334840 0.165150 0.250810 -0.295688
O21   O     O_R   0.178620 0.457600 0.674100 -0.481305
O22   O     O_R   0.821380 0.457600 0.325900 -0.487999
O23   O     O_R   0.678620 0.957600 0.674100 -0.481305
O24   O     O_R   0.321380 0.957600 0.325900 -0.487999
O25   O     O_R   0.284680 0.542100 0.669460 -0.553507
O26   O     O_R   0.715320 0.542100 0.330540 -0.543867
O27   O     O_R   0.784680 0.042100 0.669460 -0.553506
O28   O     O_R   0.215320 0.042100 0.330540 -0.543867
O29   O     O_R   0.262860 0.790390 0.676650 -0.519199
O30   O     O_R   0.737140 0.790390 0.323350 -0.506820
O31   O     O_R   0.762860 0.290390 0.676650 -0.519199
O32   O     O_R   0.237140 0.290390 0.323350 -0.506820
O33   O     O_R   0.167460 0.907030 0.670940 -0.513686
O34   O     O_R   0.832540 0.907030 0.329060 -0.523632
O35   O     O_R   0.667460 0.407030 0.670940 -0.513686
O36   O     O_R   0.332540 0.407030 0.329060 -0.523632
O37   O     O_R   0.053950 0.750220 0.675100 -0.475337
O38   O     O_R   0.946050 0.750220 0.324900 -0.473430
O39   O     O_R   0.553950 0.250220 0.675100 -0.475338
O40   O     O_R   0.446050 0.250220 0.324900 -0.473430
O41   O     O_R   0.043300 0.547370 0.827390 -0.562255
O42   O     O_R   0.956700 0.547370 0.172610 -0.556042
O43   O     O_R   0.543300 0.047370 0.827390 -0.562254
O44   O     O_R   0.456700 0.047370 0.172610 -0.556042
O45   O     O_R   0.178690 0.455820 0.821860 -0.484864
O46   O     O_R   0.821310 0.455820 0.178140 -0.509111
O47   O     O_R   0.678690 0.955820 0.821860 -0.484864
O48   O     O_R   0.321310 0.955820 0.178140 -0.509111
O49   O     O_R   0.284750 0.540170 0.828860 -0.498743
O50   O     O_R   0.715250 0.540170 0.171140 -0.515568
O51   O     O_R   0.784750 0.040170 0.828860 -0.498743
O52   O     O_R   0.215250 0.040170 0.171140 -0.515568
F1    F     F_    0.118931 0.849906 0.951977 -0.542726
F2    F     F_    0.832179 0.073323 0.077760 -0.591323
F3    F     F_    0.618931 0.349906 0.951977 -0.542726
F4    F     F_    0.332179 0.573323 0.077760 -0.591323
F5    F     F_    0.900157 0.755616 0.038052 -0.562257
F6    F     F_    0.990130 0.772124 0.949133 -0.493013
F7    F     F_    0.400157 0.255616 0.038052 -0.562257
F8    F     F_    0.490130 0.272124 0.949133 -0.493013
N1    N     N_2   0.018391 0.068749 0.388974 -0.522991
H41   H     H_    0.986110 0.046203 0.346901 0.256708
C93   C     C_3   0.077787 0.140500 0.368325 -0.274674
H42   H     H_    0.061021 0.234111 0.361903 0.114485
H43   H     H_    0.097161 0.112149 0.314966 0.166335
H44   H     H_    0.119916 0.136273 0.409130 0.172159
N2    N     N_2   0.972134 0.093586 0.527880 -0.510335
H45   H     H_    0.985632 0.132888 0.575753 0.240919
C94   C     C_3   0.897611 0.079387 0.516279 -0.309456
H46   H     H_    0.878479 0.147946 0.478741 0.133297
H47   H     H_    0.869802 0.087969 0.568071 0.151467
H48   H     H_    0.884862 0.991629 0.491382 0.153394
N3    N     N_2   0.518391 0.568748 0.388973 -0.522991
H49   H     H_    0.486111 0.546203 0.346900 0.256709
C95   C     C_3   0.577787 0.640501 0.368324 -0.274675
H50   H     H_    0.561021 0.734111 0.361902 0.114486
H51   H     H_    0.597161 0.612149 0.314965 0.166335
H52   H     H_    0.619915 0.636275 0.409130 0.172159
N4    N     N_2   0.472134 0.593587 0.527880 -0.510335
H53   H     H_    0.485632 0.632888 0.575752 0.240919
C96   C     C_3   0.397611 0.579386 0.516279 -0.309454
H54   H     H_    0.378479 0.647946 0.478740 0.133297
H55   H     H_    0.369802 0.587969 0.568070 0.151465
H56   H     H_    0.384863 0.491628 0.491382 0.153394
N5    N     N_2   0.075247 0.842861 0.343007 -0.497199
H57   H     H_    0.076158 0.913298 0.307670 0.265645
C97   C     C_3   0.129253 0.753082 0.331721 -0.287801
H58   H     H_    0.108319 0.679931 0.297848 0.159648
H59   H     H_    0.148375 0.714943 0.383039 0.143008
H60   H     H_    0.174294 0.792914 0.302758 0.148527
N6    N     N_2   0.982594 0.916121 0.629814 -0.477310
H61   H     H_    0.000005 0.992337 0.655184 0.242502
C98   C     C_3   0.914002 0.873573 0.650904 -0.263569
H62   H     H_    0.918359 0.787861 0.680218 0.144000
H63   H     H_    0.879643 0.860572 0.603854 0.137377
H64   H     H_    0.890485 0.938012 0.688937 0.182334
N7    N     N_2   0.575247 0.342861 0.343007 -0.497199
H65   H     H_    0.576158 0.413298 0.307670 0.265645
C99   C     C_3   0.629253 0.253082 0.331721 -0.287801
H66   H     H_    0.608319 0.179930 0.297848 0.159648
H67   H     H_    0.648375 0.214943 0.383039 0.143008
H68   H     H_    0.674294 0.292914 0.302758 0.148527
N8    N     N_2   0.482597 0.416122 0.629814 -0.477311
H69   H     H_    0.500010 0.492338 0.655184 0.242502
C100  C     C_3   0.414004 0.373578 0.650905 -0.263570
H70   H     H_    0.418362 0.287869 0.680224 0.144003
H71   H     H_    0.379646 0.360570 0.603856 0.137377
H72   H     H_    0.390488 0.438022 0.688934 0.182333

loop_
_geom_bond_atom_site_label_1
_geom_bond_atom_site_label_2
_ccdc_geom_bond_type
Cr2   O2    S    
C7    C83   D    
C15   N7    S    
C48   C84   S    
C6    C82   D    
C87   C91   D    
C86   H22   S    
C77   O41   A    
C14   C18   A    
C85   H21   S    
C35   C36   A    
Cr11  O15   S    
Cr10  O14   S    
C87   H23   S    
C3    O23   A    
C57   C62   D    
C65   O37   A    
N1    H41   S    
Cr8   O8    S    
C15   C19   A    
C12   C23   A    
C74   O10   A    
C59   C64   D    
C50   C54   S    
C79   O43   A    
C60   C63   D    
Cr11  O39   S    
C32   C36   A    
C14   C21   A    
C27   C28   A    
C16   C20   A    
Cr3   O19   S    
C79   O15   A    
Cr6   O30   S    
C43   C51   D    
C9    C22   A    
C94   H48   S    
Cr8   O28   S    
C76   O8    A    
C84   H28   S    
C99   H66   S    
C5    H17   S    
C11   C24   A    
C96   H56   S    
Cr5   O25   S    
Cr6   O50   S    
C17   C18   A    
N7    H65   S    
Cr5   O49   S    
C46   O34   A    
C9    C66   S    
C47   O35   A    
C13   N5    S    
C35   H35   S    
C69   O49   A    
C46   C82   S    
C52   C56   S    
C71   O51   A    
C59   F8    S    
C78   O14   A    
C40   C76   S    
C39   C55   D    
C88   C92   D    
C58   F5    S    
C33   H33   S    
C99   H67   S    
C49   H37   S    
C57   F6    S    
Cr8   O32   S    
C93   H44   S    
N6    H61   S    
C46   O30   A    
C60   C80   S    
Cr1   O1    S    
C8    C92   S    
C39   C75   S    
C82   H26   S    
C4    O28   A    
Cr10  O10   S    
C34   H34   S    
C68   O4    A    
C45   O33   A    
C37   C53   D    
C70   O50   A    
C44   C52   D    
C58   C61   D    
Cr8   O52   S    
C29   H30   S    
C66   O38   A    
Cr1   O21   S    
C29   C33   A    
C41   H5    S    
C21   C22   A    
C3    C86   S    
C40   H12   S    
N6    C98   S    
Cr2   O22   S    
C43   H7    S    
Cr12  O16   S    
C62   H14   S    
C41   C49   D    
C14   N6    S    
Cr6   O18   S    
C92   H4    S    
C9    C26   A    
C96   H54   S    
N8    C100  S    
C10   C21   A    
C25   C29   A    
Cr4   O4    S    
C12   C67   S    
C55   F3    S    
C100  H71   S    
Cr5   O29   S    
C30   C34   A    
C12   C27   A    
C27   C31   A    
C93   H42   S    
Cr10  O38   S    
C57   C77   S    
C28   C32   A    
Cr3   O3    S    
C90   H2    S    
N4    H53   S    
Cr8   O20   S    
C86   C90   D    
C59   C79   S    
C95   H50   S    
C85   C89   D    
C11   C68   S    
C8    H20   S    
C4    C85   S    
C1    O25   A    
C51   C55   S    
C40   C56   D    
N3    H49   S    
C94   H46   S    
C61   H13   S    
C76   O12   A    
C47   C83   S    
C4    O24   A    
N7    C99   S    
C75   O7    A    
Cr2   O46   S    
C83   H27   S    
N5    H57   S    
C45   O29   A    
C95   H51   S    
C5    C81   D    
C60   F7    S    
C81   H25   S    
N2    H45   S    
C38   C54   D    
Cr1   O17   S    
C19   N3    S    
C23   C24   A    
C99   H68   S    
C7    C91   S    
Cr4   O24   S    
C33   C34   A    
C100  H70   S    
C2    C87   S    
C97   H59   S    
C52   H40   S    
Cr12  O12   S    
C39   H11   S    
C36   H36   S    
C77   O13   A    
C67   O39   A    
C42   C50   D    
C41   C72   S    
C78   O42   A    
C44   H8    S    
C10   C25   A    
Cr11  O11   S    
C15   C24   A    
Cr12  O40   S    
C2    O26   A    
Cr3   O43   S    
C16   C23   A    
Cr5   O17   S    
C98   H63   S    
C67   O3    A    
Cr10  O34   S    
C30   H29   S    
Cr7   O19   S    
N3    C95   S    
C6    H18   S    
Cr9   O9    S    
C65   O1    A    
C48   O36   A    
Cr9   O37   S    
Cr10  O18   S    
C70   O46   A    
Cr6   O6    S    
C10   C65   S    
C37   C73   S    
C68   O40   A    
C100  H72   S    
Cr5   O5    S    
Cr1   O45   S    
C16   N8    S    
N2    C94   S    
C1    O21   A    
C8    C84   D    
C45   C81   S    
C54   F2    S    
Cr2   O42   S    
C7    H19   S    
C31   H32   S    
C69   O45   A    
Cr3   O23   S    
C72   O52   A    
C32   H31   S    
N8    H69   S    
N4    C96   S    
C75   O11   A    
C26   C30   A    
Cr3   O47   S    
C43   C70   S    
C2    O22   A    
Cr11  O19   S    
C64   H16   S    
C13   C17   A    
C53   F1    S    
C89   H1    S    
Cr4   O48   S    
C19   C20   A    
Cr9   O17   S    
C18   N2    S    
C25   C26   A    
C94   H47   S    
N5    C97   S    
C6    C90   S    
C95   H52   S    
Cr7   O51   S    
C3    O27   A    
Cr12  O20   S    
Cr12  O36   S    
Cr7   O7    S    
C11   C28   A    
C1    C88   S    
C38   H10   S    
C31   C35   A    
C17   N1    S    
C42   C71   S    
C96   H55   S    
C20   N4    S    
C38   C74   S    
C13   C22   A    
C97   H60   S    
Cr11  O35   S    
C51   H39   S    
C42   H6    S    
C61   C62   S    
C47   O31   A    
C66   O2    A    
C49   C53   S    
C80   O16   A    
C58   C78   S    
Cr9   O13   S    
C63   C64   S    
Cr6   O26   S    
Cr4   O20   S    
Cr7   O31   S    
C88   H24   S    
C63   H15   S    
C73   O5    A    
C98   H64   S    
C73   O9    A    
C97   H58   S    
C93   H43   S    
C44   C69   S    
C74   O6    A    
C37   H9    S    
C71   O47   A    
C98   H62   S    
N1    C93   S    
Cr4   O44   S    
C72   O48   A    
Cr9   O33   S    
C5    C89   S    
Cr2   O18   S    
C50   H38   S    
Cr7   O27   S    
C56   F4    S    
C48   O32   A    
C80   O44   A    
C91   H3    S    
Cr1   O41   S    
