data_mof_unit_39290.cif
_audit_creation_date              2012-12-11T14:08:35-0500
_audit_creation_method            fapswitch 2.2
_symmetry_space_group_name_H-M    P1
_symmetry_Int_Tables_number       1
_space_group_crystal_system       triclinic
_cell_length_a                    10.935291
_cell_length_b                    10.920913
_cell_length_c                    18.619158
_cell_angle_alpha                 90.626171
_cell_angle_beta                  89.713285
_cell_angle_gamma                 60.160979
_cell_volume                      1928.52268987

loop_
_atom_site_label
_atom_site_type_symbol
_atom_type_description
_atom_site_fract_x
_atom_site_fract_y
_atom_site_fract_z
_atom_type_partial_charge
C1    C     C_R   0.293048 0.621664 0.615211 0.561370
C2    C     C_2   0.778096 0.165341 0.708846 -0.174714
C3    C     C_2   0.249878 0.634656 0.690426 -0.137276
C4    C     C_R   0.654833 0.624579 0.600405 0.529318
C5    C     C_2   0.219524 0.649251 0.846350 -0.129396
C6    C     C_2   0.250022 0.530907 0.808106 -0.049939
C7    C     C_2   0.294077 0.519979 0.731695 -0.187563
C8    C     C_2   0.650904 0.646122 0.317201 -0.087842
C9    C     C_2   0.632199 0.665844 0.159505 -0.115420
C10   C     C_2   0.705030 0.545265 0.194701 -0.165986
C11   C     C_2   0.686791 0.536694 0.271517 -0.148490
C12   C     C_3   0.714843 0.556737 0.798638 -0.234204
C13   C     C_2   0.678266 0.127599 0.335481 -0.119774
C14   C     C_2   0.654477 0.139685 0.180884 -0.113905
C15   C     C_2   0.630376 0.053618 0.222474 -0.158593
C16   C     C_R   0.626564 0.230841 0.602878 0.533179
C17   C     C_2   0.604194 0.078715 0.299462 -0.039738
C18   C     C_2   0.120569 0.681629 0.345695 -0.108183
C19   C     C_2   0.113030 0.691897 0.191033 -0.089174
C20   C     C_2   0.041778 0.805527 0.234864 -0.147024
C21   C     C_2   0.073226 0.801370 0.310437 -0.168242
C22   C     C_R   0.702558 0.104191 0.898433 0.540053
C23   C     C_3   0.723025 0.693554 0.807353 0.038287
C24   C     C_R   0.753907 0.709675 0.882795 0.555625
C25   C     C_R   0.123989 0.703084 0.908994 0.534447
C26   C     C_R   0.675510 0.105546 0.105442 0.544552
C27   C     C_R   0.691803 0.688673 0.094650 0.557135
C28   C     C_R   0.214866 0.651597 0.404897 0.569695
C29   C     C_R   0.086644 0.713407 0.115387 0.548685
C30   C     C_R   0.642019 0.621495 0.392786 0.550325
C31   C     C_R   0.621904 0.220659 0.397868 0.545721
C32   C     C_3   0.580419 0.820921 0.782546 -0.208865
C33   C     C_3   0.551619 0.801680 0.703162 -0.092309
C34   C     C_3   0.676790 0.658900 0.673787 0.057058
C35   C     C_3   0.841186 0.687135 0.758538 -0.252277
C36   C     C_R   0.239148 0.411266 0.839176 0.056646
C37   C     C_R   0.173817 0.348245 0.800760 -0.112544
C38   C     C_R   0.157706 0.240720 0.831471 -0.127524
C39   C     C_R   0.211245 0.191364 0.899564 -0.108357
C40   C     C_R   0.280626 0.249739 0.937211 -0.078196
C41   C     C_R   0.295548 0.358400 0.907089 -0.047641
C42   C     C_R   0.486522 0.063767 0.331315 0.061105
C43   C     C_R   0.359932 0.110790 0.293559 -0.096685
C44   C     C_R   0.247137 0.103131 0.324422 -0.122334
C45   C     C_3   0.818404 0.658543 0.679944 -0.237850
C46   C     C_R   0.258820 0.049766 0.393389 -0.089824
C47   C     C_R   0.384134 0.001778 0.431115 -0.072456
C48   C     C_R   0.498842 0.005060 0.399679 -0.063440
C49   C     C_3   0.522732 0.931942 0.657950 -0.252151
C50   C     C_3   0.382872 0.065648 0.678111 -0.318046
C51   C     C_3   0.252771 0.055474 0.657783 -0.420716
C52   C     C_3   0.684457 0.538203 0.720991 -0.239949
C53   C     C_2   0.667787 0.171492 0.674262 -0.129547
C54   C     C_2   0.686419 0.175426 0.830666 -0.119022
C55   C     C_2   0.797515 0.134243 0.785995 -0.177417
Cr1   Cr    Cr6+3 0.393010 0.398050 0.501480 1.012925
Cr2   Cr    Cr6+3 0.398820 0.707980 0.501630 0.978772
Cr3   Cr    Cr6+3 0.708140 0.393940 0.496850 0.997764
Cr4   Cr    Cr6+3 0.937950 0.938450 0.008940 1.005465
Cr5   Cr    Cr6+3 0.626180 0.937030 0.994750 0.990836
Cr6   Cr    Cr6+3 0.937790 0.625760 0.001410 1.019493
H1    H     H_    0.584259 0.920061 0.790929 0.141366
H2    H     H_    0.250201 0.722307 0.824893 0.088522
H3    H     H_    0.491482 0.830245 0.816122 0.123916
H4    H     H_    0.182782 0.740363 0.712169 0.102669
H5    H     H_    0.790965 0.452648 0.168595 0.151165
H6    H     H_    0.716484 0.432554 0.291701 0.148495
H7    H     H_    0.540846 0.755721 0.184143 0.106589
H8    H     H_    0.620183 0.751498 0.298983 0.093583
H9    H     H_    0.618349 0.968819 0.198630 0.146842
H10   H     H_    0.667121 0.225491 0.202437 0.081858
H11   H     H_    0.772000 0.120600 0.310799 0.082263
H12   H     H_    0.769721 0.433274 0.701598 0.145097
H13   H     H_    0.969894 0.908963 0.213428 0.156346
H14   H     H_    0.455527 0.791206 0.702021 0.150181
H15   H     H_    0.076656 0.891460 0.333506 0.146054
H16   H     H_    0.186455 0.587175 0.210208 0.089863
H17   H     H_    0.108363 0.595461 0.324033 0.111756
H18   H     H_    0.841588 0.788783 0.762336 0.111659
H19   H     H_    0.819767 0.738964 0.644398 0.114204
H20   H     H_    0.816248 0.462673 0.813861 0.152402
H21   H     H_    0.630529 0.561222 0.834250 0.129068
H22   H     H_    0.583745 0.536063 0.718264 0.110576
H23   H     H_    0.945627 0.603709 0.776699 0.137702
H24   H     H_    0.133790 0.383130 0.747368 0.100152
H25   H     H_    0.104678 0.194808 0.802185 0.103122
H26   H     H_    0.199620 0.107387 0.922984 0.108037
H27   H     H_    0.323010 0.210724 0.989776 0.120468
H28   H     H_    0.349924 0.402245 0.936969 0.101167
H29   H     H_    0.347258 0.156012 0.240779 0.115615
H30   H     H_    0.149972 0.140225 0.295178 0.106865
H31   H     H_    0.170855 0.045442 0.417574 0.109105
H32   H     H_    0.393051 0.960234 0.484459 0.108730
H33   H     H_    0.595865 0.965539 0.429385 0.096838
H34   H     H_    0.907529 0.554178 0.662363 0.135995
H35   H     H_    0.261433 0.017332 0.601470 0.161764
H36   H     H_    0.238463 0.983913 0.694343 0.145345
H37   H     H_    0.157360 0.161574 0.662718 0.124543
H38   H     H_    0.379436 0.089368 0.736306 0.166762
H39   H     H_    0.377605 0.156276 0.649203 0.179300
H40   H     H_    0.611057 0.952475 0.665478 0.126798
H41   H     H_    0.521862 0.912351 0.599598 0.160792
H42   H     H_    0.904447 0.068238 0.804819 0.146858
H43   H     H_    0.856125 0.180962 0.680442 0.142278
H44   H     H_    0.579675 0.243460 0.812134 0.105989
H45   H     H_    0.593784 0.151016 0.703063 0.094689
H46   H     H_    0.357555 0.415287 0.707912 0.140362
O1    O     O_R   0.507110 0.256280 0.580300 -0.547113
O2    O     O_R   0.837080 0.593860 0.915300 -0.514349
O3    O     O_R   0.064770 0.636080 0.932550 -0.496908
O4    O     O_R   0.280830 0.527190 0.577940 -0.492195
O5    O     O_R   0.068250 0.829200 0.092940 -0.515263
O6    O     O_R   0.799650 0.057040 0.080330 -0.498909
O7    O     O_R   0.586130 0.079760 0.077080 -0.523319
O8    O     O_R   0.627700 0.809630 0.066580 -0.501571
O9    O     O_R   0.816140 0.597180 0.075920 -0.506333
O10   O     O_R   0.045360 0.639170 0.081440 -0.498078
O11   O     O_3   0.833980 0.833750 0.001700 -0.258993
O12   O     O_R   0.524640 0.695370 0.425100 -0.496028
O13   O     O_R   0.261360 0.738990 0.584270 -0.528522
O14   O     O_R   0.532590 0.694780 0.574370 -0.535460
O15   O     O_R   0.744470 0.503750 0.577000 -0.527162
O16   O     O_R   0.698520 0.277230 0.571620 -0.497197
O17   O     O_R   0.498530 0.256920 0.419280 -0.494206
O18   O     O_R   0.272880 0.527780 0.428680 -0.490334
O19   O     O_R   0.252780 0.739630 0.423250 -0.513671
O20   O     O_R   0.735890 0.504390 0.415980 -0.512431
O21   O     O_R   0.690560 0.277820 0.422350 -0.507794
O22   O     O_3   0.499990 0.499990 0.499980 -0.254818
O23   O     O_R   0.089190 0.825870 0.932320 -0.523037
O24   O     O_R   0.819070 0.053960 0.931440 -0.494277
O25   O     O_R   0.607070 0.076440 0.916460 -0.530627
O26   O     O_R   0.647110 0.806550 0.917690 -0.510999

loop_
_geom_bond_atom_site_label_1
_geom_bond_atom_site_label_2
_ccdc_geom_bond_type
C24   O26   A    
C51   H36   S    
C41   H28   S    
Cr4   O23   S    
Cr3   O21   S    
C22   O24   A    
C18   C21   D    
C14   H10   S    
C54   C55   D    
C29   O5    A    
Cr5   O7    S    
C19   C20   D    
C39   H26   S    
Cr6   O2    S    
Cr5   O25   S    
C22   C54   S    
C4    O15   A    
C12   C23   S    
Cr4   O24   S    
C50   H38   S    
C48   H33   S    
C38   H25   S    
Cr1   O17   S    
Cr2   O22   S    
C36   C37   A    
C16   O16   A    
C31   O17   A    
C3    C7    D    
C2    C55   S    
C49   H40   S    
C38   C39   A    
C46   H31   S    
C30   O12   A    
Cr6   O3    S    
Cr3   O22   S    
C33   C49   S    
C55   H42   S    
C5    H2    S    
C19   H16   S    
C16   C53   S    
Cr1   O1    S    
C46   C47   A    
C53   H45   S    
C33   H14   S    
C44   C46   A    
C4    O14   A    
C23   C24   S    
C49   H41   S    
Cr5   O11   S    
C9    C10   D    
Cr1   O4    S    
Cr1   O22   S    
C18   H17   S    
C51   H35   S    
Cr2   O12   S    
C27   O9    A    
C51   H37   S    
Cr3   O20   S    
C36   C41   A    
C3    H4    S    
C31   O21   A    
C25   O23   A    
C12   C52   S    
C11   H6    S    
C33   C34   S    
C10   H5    S    
C47   H32   S    
C4    C34   S    
Cr3   O15   S    
C43   H29   S    
Cr6   O10   S    
C18   C28   S    
C32   H3    S    
C52   H12   S    
Cr2   O19   S    
C8    H8    S    
C50   C51   S    
C29   O10   A    
C1    C3    S    
C1    O13   A    
C52   H22   S    
C43   C44   A    
C26   O7    A    
C37   C38   A    
C47   C48   A    
C21   H15   S    
C2    H43   S    
Cr4   O6    S    
Cr6   O9    S    
Cr4   O5    S    
Cr3   O16   S    
C20   H13   S    
C34   C45   S    
C42   C48   A    
Cr1   O18   S    
C14   C26   S    
C44   H30   S    
C25   O3    A    
Cr2   O13   S    
C5    C25   S    
C40   C41   A    
Cr4   O11   S    
C23   C35   S    
C7    H46   S    
C42   C43   A    
C45   H34   S    
C17   C42   S    
C28   O18   A    
C9    C27   S    
C37   H24   S    
C15   C17   S    
C15   H9    S    
C30   O20   A    
C54   H44   S    
C22   O25   A    
Cr6   O11   S    
C34   C52   S    
C13   C31   S    
C24   O2    A    
C2    C53   D    
C35   H23   S    
C6    C7    S    
C13   H11   S    
C28   O19   A    
C50   H39   S    
C13   C17   D    
C8    C30   S    
C23   C32   S    
C40   H27   S    
C9    H7    S    
C32   H1    S    
C19   C29   S    
C32   C33   S    
C5    C6    D    
C8    C11   D    
C35   H18   S    
C6    C36   S    
C12   H20   S    
C45   H19   S    
C26   O6    A    
C10   C11   S    
C16   O1    A    
Cr2   O14   S    
C39   C40   A    
C12   H21   S    
C20   C21   S    
C49   C50   S    
C14   C15   D    
Cr5   O8    S    
Cr5   O26   S    
C1    O4    A    
C27   O8    A    
C35   C45   S    
