data_mof_unit_47020.cif
_audit_creation_date              2012-10-26T20:36:03-0400
_audit_creation_method            fapswitch 2.2
_symmetry_space_group_name_H-M    P1
_symmetry_Int_Tables_number       1
_space_group_crystal_system       triclinic
_cell_length_a                    10.80936
_cell_length_b                    15.836117
_cell_length_c                    17.102211
_cell_angle_alpha                 95.09903
_cell_angle_beta                  92.80219
_cell_angle_gamma                 91.809429
_cell_volume                      2910.55602606

loop_
_atom_site_label
_atom_site_type_symbol
_atom_type_description
_atom_site_fract_x
_atom_site_fract_y
_atom_site_fract_z
_atom_type_partial_charge
C1    C     C_R   0.499024 0.490198 0.348784 0.546940
C2    C     C_R   0.511685 0.523759 0.901868 0.226855
C3    C     C_R   0.444571 0.407627 0.136749 -0.112037
C4    C     C_R   0.543206 0.595113 0.863611 -0.112444
C5    C     C_R   0.447245 0.412417 0.218429 -0.151904
C6    C     C_R   0.539082 0.590795 0.781914 -0.152211
C7    C     C_R   0.437322 0.755603 0.461227 0.137559
C8    C     C_R   0.549356 0.244683 0.546020 0.132637
C9    C     C_R   0.439929 0.844616 0.467728 -0.099323
C10   C     C_R   0.536294 0.155906 0.544172 -0.099354
C11   C     C_R   0.524764 0.891814 0.519508 0.188502
C12   C     C_R   0.501312 0.509745 0.651306 0.547699
C13   C     C_R   0.469856 0.108392 0.482551 0.184641
C14   C     C_R   0.604113 0.846925 0.567108 -0.159399
C15   C     C_R   0.408152 0.152935 0.425770 -0.159790
C16   C     C_R   0.262996 0.500722 0.509516 0.542254
C17   C     C_R   0.736673 0.499364 0.489827 0.542427
C18   C     C_R   0.597454 0.757319 0.561656 0.001391
C19   C     C_R   0.415131 0.242497 0.431365 0.002559
C20   C     C_R   0.105504 0.345589 0.530135 -0.086109
C21   C     C_R   0.892511 0.654896 0.467366 -0.078848
C22   C     C_R   0.044230 0.267526 0.506207 0.020485
C23   C     C_R   0.497746 0.485095 0.263046 0.009014
C24   C     C_R   0.954959 0.732804 0.489948 0.021987
C25   C     C_R   0.932768 0.267523 0.460687 -0.108633
C26   C     C_R   0.067773 0.733526 0.533351 -0.119067
C27   C     C_R   0.877331 0.343782 0.448490 -0.107919
C28   C     C_R   0.122817 0.657522 0.546909 -0.113970
C29   C     C_R   0.934061 0.422239 0.478926 0.001995
C30   C     C_R   0.065484 0.578589 0.517945 0.001386
C31   C     C_R   0.057198 0.423154 0.509350 -0.001432
C32   C     C_R   0.941833 0.577488 0.487991 -0.002514
C33   C     C_R   0.871896 0.499401 0.478824 -0.041845
C34   C     C_R   0.503695 0.514436 0.737219 0.006768
C35   C     C_R   0.127361 0.501160 0.519071 -0.040709
C36   C     C_3   0.102078 0.187353 0.530982 -0.278454
C37   C     C_3   0.036650 0.103976 0.497361 -0.447694
C38   C     C_3   0.899421 0.815078 0.470480 -0.277637
C39   C     C_3   0.976981 0.859326 0.412861 -0.443138
C40   C     C_3   0.632398 0.288594 0.613063 -0.243359
C41   C     C_3   0.752885 0.243122 0.629840 -0.476423
C42   C     C_3   0.345368 0.713686 0.398516 -0.242007
C43   C     C_3   0.379794 0.733087 0.316083 -0.454330
C44   C     C_R   0.547741 0.552131 0.225180 -0.167019
C45   C     C_R   0.471307 0.442765 0.775265 -0.167489
C46   C     C_R   0.544851 0.547515 0.143526 -0.091066
C47   C     C_R   0.475225 0.447087 0.856911 -0.089668
C48   C     C_R   0.492019 0.475000 0.098546 0.226298
Cu1   Cu    Cu3+1 0.493970 0.415220 0.496180 0.905065
Cu2   Cu    Cu3+1 0.506030 0.584780 0.503820 0.906286
H1    H     H_    0.114764 0.793013 0.555158 0.110858
H2    H     H_    0.584458 0.600365 0.116024 0.133395
H3    H     H_    0.404491 0.351446 0.102936 0.114103
H4    H     H_    0.571311 0.654301 0.897401 0.114055
H5    H     H_    0.580127 0.123528 0.590553 0.133106
H6    H     H_    0.375406 0.876824 0.431214 0.124632
H7    H     H_    0.940957 0.099598 0.517917 0.147160
H8    H     H_    0.034313 0.098637 0.432100 0.147621
H9    H     H_    0.088283 0.049876 0.517912 0.145772
H10   H     H_    0.199210 0.186547 0.512902 0.156181
H11   H     H_    0.104830 0.189654 0.596186 0.139628
H12   H     H_    0.884579 0.209203 0.437244 0.114546
H13   H     H_    0.071468 0.876384 0.439119 0.144064
H14   H     H_    0.984287 0.817295 0.357828 0.154080
H15   H     H_    0.932090 0.918452 0.398231 0.141406
H16   H     H_    0.803689 0.803779 0.443963 0.147932
H17   H     H_    0.893382 0.857585 0.525379 0.141615
H18   H     H_    0.790992 0.340660 0.413441 0.146218
H19   H     H_    0.208970 0.661432 0.582121 0.148209
H20   H     H_    0.441910 0.383567 0.742028 0.117112
H21   H     H_    0.590932 0.607378 0.258667 0.116461
H22   H     H_    0.408529 0.359716 0.246638 0.121251
H23   H     H_    0.671028 0.881110 0.608388 0.100903
H24   H     H_    0.564763 0.646996 0.753825 0.126605
H25   H     H_    0.736441 0.190888 0.667698 0.135633
H26   H     H_    0.791622 0.216819 0.574450 0.165799
H27   H     H_    0.822726 0.288319 0.661658 0.148679
H28   H     H_    0.662605 0.352312 0.601369 0.224788
H29   H     H_    0.579937 0.293624 0.667364 0.127253
H30   H     H_    0.361581 0.800042 0.306320 0.136249
H31   H     H_    0.323291 0.691510 0.271236 0.144559
H32   H     H_    0.479269 0.721886 0.307967 0.160128
H33   H     H_    0.335264 0.645136 0.397850 0.222618
H34   H     H_    0.353663 0.118554 0.377699 0.105529
H35   H     H_    0.251607 0.737681 0.409314 0.117252
H36   H     H_    0.658913 0.724031 0.599114 0.131833
H37   H     H_    0.364732 0.275536 0.387943 0.130773
H38   H     H_    0.189728 0.345038 0.566979 0.135411
H39   H     H_    0.807081 0.655262 0.431739 0.135676
H40   H     H_    0.449797 0.390492 0.884406 0.133161
N1    N     N_2   0.485310 0.466732 0.015269 -0.254469
N2    N     N_2   0.518316 0.532072 0.985171 -0.254133
N3    N     N_R   0.515100 0.712130 0.509560 -0.222710
N4    N     N_R   0.484900 0.287870 0.490440 -0.225073
N5    N     N_2   0.532085 0.983061 0.525116 -0.252399
N6    N     N_2   0.462975 0.017123 0.476523 -0.252088
O1    O     O_R   0.494360 0.420530 0.382500 -0.506712
O2    O     O_R   0.505640 0.579470 0.617500 -0.502723
O3    O     O_R   0.504550 0.563720 0.388950 -0.517870
O4    O     O_R   0.495450 0.436280 0.611050 -0.528325
O5    O     O_R   0.314560 0.428400 0.496770 -0.501919
O6    O     O_R   0.685440 0.571600 0.503230 -0.506487
O7    O     O_R   0.324750 0.571590 0.503220 -0.525167
O8    O     O_R   0.675250 0.428410 0.496780 -0.519135

loop_
_geom_bond_atom_site_label_1
_geom_bond_atom_site_label_2
_ccdc_geom_bond_type
C29   C33   A    
C27   C29   A    
C14   C18   A    
N5    N6    D    
C1    O3    A    
Cu1   O8    S    
C21   H39   S    
C15   C19   A    
C39   H14   S    
Cu2   O3    S    
C18   H36   S    
C30   C35   A    
C36   C37   S    
C17   O8    A    
C24   C26   A    
C5    H22   S    
C19   H37   S    
C16   C35   S    
C41   H27   S    
C38   C39   S    
C11   C14   A    
C46   H2    S    
C3    C48   A    
C44   H21   S    
C7    C42   S    
C27   H18   S    
C38   H16   S    
C22   C25   A    
C24   C38   S    
Cu1   N4    S    
C12   O2    A    
C37   H8    S    
Cu2   O7    S    
C39   H15   S    
C17   C33   S    
C44   C46   A    
C6    H24   S    
C45   C47   A    
C7    N3    A    
C21   C32   A    
C46   C48   A    
Cu2   O2    S    
C13   N6    S    
C14   H23   S    
C8    N4    A    
C4    C6    A    
C42   H35   S    
N1    N2    D    
C9    H6    S    
C36   H10   S    
C43   H30   S    
C48   N1    S    
C23   C44   A    
C6    C34   A    
C2    C4    A    
C17   O6    A    
C41   H25   S    
C16   O7    A    
C5    C23   A    
C1    O1    A    
C18   N3    A    
C28   H19   S    
C40   H29   S    
C34   C45   A    
C2    N2    S    
C10   H5    S    
C9    C11   A    
C37   H9    S    
C19   N4    A    
C40   C41   S    
C20   C22   A    
C1    C23   S    
C13   C15   A    
C43   H31   S    
C47   H40   S    
C40   H28   S    
C42   C43   S    
C12   C34   S    
C36   H11   S    
C39   H13   S    
C11   N5    S    
C7    C9    A    
C4    H4    S    
C45   H20   S    
C42   H33   S    
C3    C5    A    
C10   C13   A    
Cu2   N3    S    
Cu2   O6    S    
C15   H34   S    
C2    C47   A    
C25   C27   A    
C22   C36   S    
C26   C28   A    
C32   C33   A    
C28   C30   A    
C29   C31   A    
C26   H1    S    
Cu1   O4    S    
C30   C32   A    
C3    H3    S    
C20   H38   S    
C31   C35   A    
C25   H12   S    
C12   O4    A    
Cu1   O1    S    
C16   O5    A    
C38   H17   S    
C8    C10   A    
Cu1   Cu2   S    
C21   C24   A    
C43   H32   S    
C8    C40   S    
C37   H7    S    
Cu1   O5    S    
C41   H26   S    
C20   C31   A    
