data_mof_unit_9983.cif
_audit_creation_date              2012-12-11T14:42:25-0500
_audit_creation_method            fapswitch 2.2
_symmetry_space_group_name_H-M    P1
_symmetry_Int_Tables_number       1
_space_group_crystal_system       triclinic
_cell_length_a                    19.164726
_cell_length_b                    11.092577
_cell_length_c                    18.78588
_cell_angle_alpha                 89.316139
_cell_angle_beta                  89.793778
_cell_angle_gamma                 89.939079
_cell_volume                      3993.30641565

loop_
_atom_site_label
_atom_site_type_symbol
_atom_type_description
_atom_site_fract_x
_atom_site_fract_y
_atom_site_fract_z
_atom_type_partial_charge
C1    C     C_R   0.726747 0.953723 0.852992 0.564425
C2    C     C_R   0.274791 0.957912 0.145732 0.587066
C3    C     C_R   0.226745 0.453773 0.853013 0.566175
C4    C     C_R   0.774787 0.457900 0.145739 0.584785
C5    C     C_R   0.694360 0.438307 0.044437 0.051686
C6    C     C_R   0.313997 0.422624 0.949809 0.060793
C7    C     C_R   0.194377 0.938355 0.044407 0.051905
C8    C     C_R   0.814006 0.922218 0.949712 0.059849
C9    C     C_R   0.761145 0.422287 0.073029 0.004246
C10   C     C_R   0.248239 0.396639 0.920091 -0.005267
C11   C     C_R   0.261155 0.922308 0.073016 0.004803
C12   C     C_R   0.748212 0.896476 0.920048 -0.005896
C13   C     C_R   0.818199 0.393013 0.027971 0.070444
C14   C     C_R   0.199339 0.327614 0.960188 0.054993
C15   C     C_R   0.318211 0.892988 0.027970 0.070716
C16   C     C_R   0.699267 0.827592 0.960177 0.055125
C17   C     C_R   0.809679 0.393895 0.955660 -0.140851
C18   C     C_R   0.215811 0.291094 0.028009 -0.144482
C19   C     C_R   0.309690 0.893805 0.955660 -0.140324
C20   C     C_R   0.715721 0.791145 0.028021 -0.144480
C21   C     C_R   0.744052 0.407931 0.925824 -0.025720
C22   C     C_R   0.273417 0.338747 0.063025 -0.036336
C23   C     C_R   0.244070 0.907911 0.925812 -0.024638
C24   C     C_R   0.773379 0.838711 0.063004 -0.035982
C25   C     C_R   0.545158 0.291828 0.518950 0.118093
C26   C     C_R   0.539334 0.287744 0.444922 0.144879
C27   C     C_R   0.032752 0.785419 0.526056 0.127276
C28   C     C_R   0.995404 0.767658 0.465939 0.128338
C29   C     C_R   0.522296 0.176611 0.413040 0.045087
C30   C     C_R   0.551491 0.182874 0.559053 -0.013586
C31   C     C_R   0.012077 0.674174 0.420364 0.053212
C32   C     C_R   0.059882 0.683039 0.560284 -0.020740
C33   C     C_R   0.534730 0.070541 0.450914 -0.149625
C34   C     C_R   0.552518 0.073895 0.522824 -0.180977
C35   C     C_R   0.058432 0.584454 0.444593 -0.127184
C36   C     C_R   0.077074 0.583424 0.517567 -0.171024
C37   C     C_R   0.790135 0.495408 0.558839 0.027822
C38   C     C_R   0.192999 0.335109 0.470351 -0.011646
C39   C     C_R   0.287824 0.973757 0.560495 0.045519
C40   C     C_R   0.681317 0.857758 0.462111 0.000277
C41   C     C_R   0.811448 0.510637 0.488416 0.061063
C42   C     C_R   0.205195 0.331388 0.543925 0.080399
C43   C     C_R   0.299291 0.018588 0.491219 0.021500
C44   C     C_R   0.691990 0.852964 0.535909 0.071047
C45   C     C_R   0.530927 0.176908 0.851073 0.551272
C46   C     C_R   0.470756 0.179354 0.150090 0.554988
C47   C     C_R   0.030972 0.676920 0.851099 0.545534
C48   C     C_R   0.970753 0.679352 0.150088 0.555460
C49   C     C_R   0.771474 0.462609 0.433231 0.050174
C50   C     C_R   0.246995 0.420565 0.574845 0.025372
C51   C     C_R   0.270456 0.958638 0.432314 0.032668
C52   C     C_R   0.737015 0.937055 0.568698 0.022929
C53   C     C_R   0.730120 0.361231 0.447597 0.102967
C54   C     C_R   0.290414 0.493527 0.531026 0.068157
C55   C     C_R   0.229782 0.854861 0.442281 0.086577
C56   C     C_R   0.778387 0.014525 0.525536 0.074739
C57   C     C_R   0.717472 0.329566 0.518311 -0.095828
C58   C     C_R   0.289355 0.479652 0.457980 -0.097402
C59   C     C_R   0.216126 0.813945 0.510626 -0.128847
C60   C     C_R   0.777528 0.002433 0.452029 -0.093111
C61   C     C_R   0.745410 0.399250 0.573321 0.053279
C62   C     C_R   0.242777 0.400334 0.426716 0.001777
C63   C     C_R   0.242787 0.874091 0.569169 0.048120
C64   C     C_R   0.734931 0.916935 0.420508 0.008596
C65   C     C_R   0.736839 0.361998 0.853534 0.542074
C66   C     C_R   0.276206 0.314799 0.140098 0.558144
C67   C     C_R   0.236849 0.862017 0.853519 0.547366
C68   C     C_R   0.776196 0.814808 0.140092 0.557819
C69   C     C_R   0.725827 0.961087 0.644837 0.559836
C70   C     C_R   0.288661 0.996477 0.360494 0.592321
C71   C     C_R   0.228154 0.456711 0.647141 0.551103
C72   C     C_R   0.788729 0.496606 0.360361 0.597753
C73   C     C_R   0.562433 0.182608 0.636859 0.541922
C74   C     C_R   0.476856 0.177181 0.349660 0.580338
C75   C     C_R   0.066715 0.682637 0.638185 0.532817
C76   C     C_R   0.973927 0.676072 0.352639 0.578643
C77   C     C_R   0.737232 0.355520 0.644724 0.537640
C78   C     C_R   0.259094 0.360772 0.353872 0.574704
C79   C     C_R   0.228864 0.822214 0.638509 0.520123
C80   C     C_R   0.757522 0.865118 0.351775 0.572331
C81   C     C_2   0.505030 0.163381 0.923793 -0.087934
C82   C     C_2   0.503610 0.181007 0.080096 -0.092824
C83   C     C_2   0.005034 0.663370 0.923796 -0.088771
C84   C     C_2   0.003614 0.680988 0.080097 -0.092587
C85   C     C_2   0.525440 0.084120 0.045959 -0.140293
C86   C     C_2   0.541528 0.092998 0.969558 -0.120564
C87   C     C_2   0.025407 0.584082 0.045956 -0.140448
C88   C     C_2   0.041514 0.592969 0.969563 -0.119823
C89   C     C_R   0.685808 0.433665 0.970438 0.092249
C90   C     C_R   0.324113 0.404521 0.023300 0.078509
C91   C     C_R   0.185830 0.933703 0.970411 0.092732
C92   C     C_R   0.824119 0.904271 0.023214 0.079643
Cr1   Cr    Cr6+3 0.769270 0.163730 0.750710 1.093436
Cr2   Cr    Cr6+3 0.230730 0.163730 0.249290 1.059242
Cr3   Cr    Cr6+3 0.269270 0.663730 0.750710 1.078292
Cr4   Cr    Cr6+3 0.730730 0.663730 0.249290 1.067830
Cr5   Cr    Cr6+3 0.612620 0.009790 0.748780 1.045610
Cr6   Cr    Cr6+3 0.387380 0.009790 0.251220 1.059329
Cr7   Cr    Cr6+3 0.112620 0.509790 0.748780 1.059446
Cr8   Cr    Cr6+3 0.887380 0.509790 0.251220 1.077071
Cr9   Cr    Cr6+3 0.614160 0.322500 0.747710 1.115941
Cr10  Cr    Cr6+3 0.385840 0.322500 0.252290 1.111529
Cr11  Cr    Cr6+3 0.114160 0.822500 0.747710 1.115411
Cr12  Cr    Cr6+3 0.885840 0.822500 0.252290 1.098218
H1    H     H_    0.533791 0.999806 0.074360 0.191107
H2    H     H_    0.586339 0.042887 0.950878 0.177598
H3    H     H_    0.033725 0.499754 0.074351 0.190866
H4    H     H_    0.086336 0.542878 0.950894 0.177212
H5    H     H_    0.689294 0.247412 0.530513 0.110589
H6    H     H_    0.326666 0.528853 0.425330 0.171372
H7    H     H_    0.187734 0.731036 0.518036 0.112107
H8    H     H_    0.816400 0.049492 0.420207 0.180402
H9    H     H_    0.504203 0.267326 0.052241 0.169099
H10   H     H_    0.461838 0.218992 0.941535 0.125046
H11   H     H_    0.004244 0.767308 0.052246 0.169877
H12   H     H_    0.961827 0.718954 0.941524 0.124896
H13   H     H_    0.854489 0.373078 0.922587 0.182577
H14   H     H_    0.178547 0.234297 0.056024 0.194576
H15   H     H_    0.354498 0.872926 0.922596 0.180902
H16   H     H_    0.678418 0.734463 0.056064 0.194685
H17   H     H_    0.527583 0.986754 0.424880 0.140125
H18   H     H_    0.562651 0.991865 0.552150 0.152485
H19   H     H_    0.072920 0.510951 0.410296 0.140785
H20   H     H_    0.104050 0.507216 0.540606 0.145448
O1    O     O_R   0.784320 0.290430 0.830510 -0.508944
O2    O     O_R   0.215680 0.290430 0.169490 -0.503864
O3    O     O_R   0.284320 0.790430 0.830510 -0.514511
O4    O     O_R   0.715680 0.790430 0.169490 -0.504371
O5    O     O_R   0.554640 0.080370 0.673500 -0.530043
O6    O     O_R   0.445360 0.080370 0.326500 -0.521270
O7    O     O_R   0.054640 0.580370 0.673500 -0.514071
O8    O     O_R   0.945360 0.580370 0.326500 -0.495882
O9    O     O_R   0.543920 0.282180 0.666790 -0.454705
O10   O     O_R   0.456080 0.282180 0.333210 -0.460389
O11   O     O_R   0.043920 0.782180 0.666790 -0.459459
O12   O     O_R   0.956080 0.782180 0.333210 -0.482385
O13   O     O_R   0.679040 0.374160 0.674430 -0.492592
O14   O     O_R   0.320960 0.374160 0.325570 -0.468330
O15   O     O_R   0.179040 0.874160 0.674430 -0.481559
O16   O     O_R   0.820960 0.874160 0.325570 -0.467804
O17   O     O_3   0.665350 0.165340 0.749070 -0.311891
O18   O     O_3   0.334650 0.165340 0.250930 -0.317915
O19   O     O_3   0.165350 0.665340 0.749070 -0.324541
O20   O     O_3   0.834650 0.665340 0.250930 -0.324194
O21   O     O_R   0.762640 0.040960 0.825200 -0.468067
O22   O     O_R   0.237360 0.040960 0.174800 -0.492040
O23   O     O_R   0.262640 0.540960 0.825200 -0.467113
O24   O     O_R   0.737360 0.540960 0.174800 -0.490675
O25   O     O_R   0.667400 0.923970 0.829950 -0.479270
O26   O     O_R   0.332600 0.923970 0.170050 -0.469025
O27   O     O_R   0.167400 0.423970 0.829950 -0.476709
O28   O     O_R   0.832600 0.423970 0.170050 -0.470863
O29   O     O_R   0.553960 0.081340 0.821780 -0.502596
O30   O     O_R   0.446040 0.081340 0.178220 -0.493620
O31   O     O_R   0.053960 0.581340 0.821780 -0.502721
O32   O     O_R   0.946040 0.581340 0.178220 -0.493173
O33   O     O_R   0.543180 0.283240 0.826740 -0.454024
O34   O     O_R   0.456820 0.283240 0.173260 -0.477235
O35   O     O_R   0.043180 0.783240 0.826740 -0.455016
O36   O     O_R   0.956820 0.783240 0.173260 -0.480667
O37   O     O_R   0.678360 0.375140 0.822710 -0.467649
O38   O     O_R   0.321640 0.375140 0.177290 -0.458180
O39   O     O_R   0.178360 0.875140 0.822710 -0.462400
O40   O     O_R   0.821640 0.875140 0.177290 -0.459171
O41   O     O_R   0.785050 0.289380 0.670560 -0.496794
O42   O     O_R   0.214950 0.289380 0.329440 -0.544409
O43   O     O_R   0.285050 0.789380 0.670560 -0.505230
O44   O     O_R   0.714950 0.789380 0.329440 -0.547520
O45   O     O_R   0.763320 0.039990 0.676930 -0.466711
O46   O     O_R   0.236680 0.039990 0.323070 -0.476584
O47   O     O_R   0.263320 0.539990 0.676930 -0.476825
O48   O     O_R   0.736680 0.539990 0.323070 -0.469860
O49   O     O_R   0.668130 0.922920 0.670000 -0.492788
O50   O     O_R   0.331870 0.922920 0.330000 -0.485543
O51   O     O_R   0.168130 0.422920 0.670000 -0.491895
O52   O     O_R   0.831870 0.422920 0.330000 -0.460712
I1    I     I_    0.913251 0.451108 0.479671 -0.439734
I2    I     I_    0.171275 0.183535 0.610366 -0.337713
I3    I     I_    0.358121 0.177835 0.476844 -0.397434
I4    I     I_    0.656917 0.699664 0.596046 -0.368580
I5    I     I_    0.702685 0.238907 0.365453 -0.328199
I6    I     I_    0.364783 0.620266 0.566355 -0.334440
I7    I     I_    0.191259 0.751646 0.356174 -0.339816
I8    I     I_    0.859432 0.126557 0.563334 -0.281669
I9    I     I_    0.584254 0.467313 0.931881 -0.181995
I10   I     I_    0.410664 0.493531 0.070429 -0.169568
I11   I     I_    0.084280 0.967395 0.931826 -0.177889
I12   I     I_    0.910683 0.993324 0.070232 -0.172768
I13   I     I_    0.605770 0.453583 0.115079 -0.216321
I14   I     I_    0.398824 0.483871 0.883701 -0.200306
I15   I     I_    0.105773 0.953697 0.114994 -0.231398
I16   I     I_    0.898878 0.982580 0.883423 -0.203261
I17   I     I_    0.919486 0.331686 0.058281 -0.242409
I18   I     I_    0.093255 0.286257 0.934132 -0.240875
I19   I     I_    0.419520 0.831777 0.058290 -0.242116
I20   I     I_    0.593188 0.786243 0.934080 -0.247874
I21   I     I_    0.532748 0.464557 0.564986 -0.236506
I22   I     I_    0.557713 0.450297 0.382084 -0.296200
I23   I     I_    0.034644 0.965998 0.561195 -0.263866
I24   I     I_    0.889831 0.799303 0.482606 -0.355711
C93   C     C_3   0.819515 0.571715 0.618765 -0.231160
C94   C     C_3   0.886512 0.520625 0.652212 -0.270071
C95   C     C_3   0.893302 0.556404 0.730107 -0.405451
H21   H     H_    0.897104 0.655969 0.734481 0.179390
H22   H     H_    0.847717 0.523558 0.761447 0.152955
H23   H     H_    0.940908 0.514664 0.752958 0.188393
H24   H     H_    0.888156 0.420919 0.649089 0.225208
H25   H     H_    0.932065 0.556478 0.622367 0.219144
H26   H     H_    0.829020 0.664951 0.599669 0.193429
H27   H     H_    0.778982 0.580345 0.660781 0.171708
C96   C     C_3   0.133601 0.260591 0.437884 -0.229167
C97   C     C_3   0.062089 0.257980 0.474038 -0.305949
C98   C     C_3   0.008532 0.200200 0.424333 -0.392618
H28   H     H_    0.000896 0.256824 0.375794 0.168897
H29   H     H_    0.026081 0.108915 0.408341 0.185464
H30   H     H_    0.957629 0.191020 0.451432 0.224159
H31   H     H_    0.061385 0.207141 0.523953 0.246021
H32   H     H_    0.046324 0.349903 0.487165 0.196074
H33   H     H_    0.118517 0.305828 0.387472 0.183129
H34   H     H_    0.151986 0.167014 0.428368 0.200179
C99   C     C_3   0.323109 0.030203 0.624982 -0.208184
C100  C     C_3   0.395218 0.974608 0.639141 -0.279245
C101  C     C_3   0.414574 0.982380 0.717812 -0.379322
H35   H     H_    0.419418 0.078177 0.733664 0.171466
H36   H     H_    0.464832 0.935216 0.727377 0.189134
H37   H     H_    0.374366 0.937782 0.751630 0.171929
H38   H     H_    0.396777 0.878564 0.623467 0.216435
H39   H     H_    0.434687 0.022777 0.606376 0.190156
H40   H     H_    0.328431 0.129252 0.619261 0.184099
H41   H     H_    0.289283 0.020005 0.672745 0.186921
C102  C     C_3   0.621071 0.788190 0.425740 -0.222632
C103  C     C_3   0.550977 0.761985 0.463650 -0.308206
C104  C     C_3   0.490194 0.746894 0.411105 -0.413148
H42   H     H_    0.464640 0.833719 0.397987 0.166798
H43   H     H_    0.449776 0.687276 0.434795 0.201984
H44   H     H_    0.508143 0.705925 0.360680 0.183909
H45   H     H_    0.556027 0.675181 0.491112 0.245245
H46   H     H_    0.536792 0.827905 0.504237 0.178853
H47   H     H_    0.607108 0.841310 0.377242 0.174180
H48   H     H_    0.641240 0.698350 0.409946 0.212229

loop_
_geom_bond_atom_site_label_1
_geom_bond_atom_site_label_2
_ccdc_geom_bond_type
Cr2   O22   S    
C8    I16   S    
C79   O15   A    
C95   H21   S    
Cr6   O30   S    
Cr3   O19   S    
C55   C59   A    
C93   C94   S    
C14   C18   A    
C5    C89   A    
C1    O21   A    
C35   C36   A    
C84   C87   D    
C87   C88   S    
C43   C51   A    
C44   I4    S    
C32   C75   S    
Cr4   O44   S    
C76   O12   A    
C101  H37   S    
C96   H33   S    
Cr6   O26   S    
C47   O35   A    
C98   H28   S    
Cr8   O28   S    
C15   C19   A    
C96   H34   S    
C48   O36   A    
C43   I3    S    
C31   C76   S    
C28   I24   S    
C97   H32   S    
C2    O26   A    
C37   C41   A    
C16   I20   S    
C32   C36   A    
Cr7   O19   S    
C16   C20   A    
C36   H20   S    
C77   O13   A    
C38   C42   A    
Cr11  O15   S    
C19   H15   S    
C85   C86   S    
Cr6   O50   S    
C75   O11   A    
C97   H31   S    
C56   C60   A    
C77   O41   A    
C46   O34   A    
C29   C33   A    
Cr4   O4    S    
C102  H47   S    
Cr10  O14   S    
C93   H26   S    
C57   C61   A    
C9    C13   A    
C22   C66   S    
Cr11  O39   S    
Cr11  O11   S    
C52   C69   S    
C46   C82   S    
C65   O37   A    
C11   C15   A    
C57   H5    S    
C12   C16   A    
C61   C77   S    
C49   C72   S    
Cr7   O31   S    
C99   H41   S    
Cr8   O52   S    
C59   H7    S    
C54   I6    S    
Cr1   O21   S    
C8    C92   A    
C51   C70   S    
C47   C83   S    
C38   C96   S    
C18   C22   A    
Cr12  O12   S    
C104  H42   S    
C18   H14   S    
C51   C55   A    
C81   C86   D    
C17   H13   S    
C15   I19   S    
Cr8   O32   S    
C98   H29   S    
C83   C88   D    
C48   O32   A    
Cr9   O33   S    
C34   H18   S    
C13   I17   S    
Cr6   O18   S    
C33   H17   S    
C64   C80   S    
Cr10  O34   S    
C86   H2    S    
C1    C12   S    
C69   O49   A    
C90   I10   S    
Cr12  O36   S    
C85   H1    S    
C2    C11   S    
C24   C92   A    
C41   C49   A    
C75   O7    A    
Cr2   O2    S    
C39   C43   A    
C46   O30   A    
C95   H23   S    
C73   O5    A    
C78   O42   A    
Cr5   O49   S    
C94   C95   S    
C30   C34   A    
Cr2   O18   S    
C20   C24   A    
Cr3   O23   S    
C101  H35   S    
C10   C14   A    
C30   C73   S    
Cr9   O13   S    
C19   C23   A    
C35   H19   S    
C21   C89   A    
C29   C74   S    
C56   I8    S    
C25   C26   A    
C6    C90   A    
C38   C62   A    
Cr7   O27   S    
C17   C21   A    
C48   C84   S    
Cr4   O24   S    
Cr11  O19   S    
C102  H48   S    
C40   C102  S    
C65   O1    A    
C81   H10   S    
C7    C11   A    
C50   C71   S    
Cr10  O10   S    
C5    C9    A    
C99   C100  S    
C60   H8    S    
C67   O3    A    
Cr4   O20   S    
C95   H22   S    
C96   C97   S    
C100  H39   S    
C8    C12   A    
Cr1   O45   S    
C6    I14   S    
Cr12  O20   S    
C33   C34   A    
C22   C90   A    
C45   O33   A    
C69   O45   A    
C4    O28   A    
C1    O25   A    
C70   O50   A    
Cr5   O17   S    
C55   I7    S    
C58   C62   A    
C42   C50   A    
C73   O9    A    
C84   H11   S    
Cr5   O29   S    
C94   H24   S    
C103  H46   S    
Cr8   O20   S    
C68   O4    A    
C23   C91   A    
C66   O38   A    
C45   O29   A    
C66   O2    A    
C99   H40   S    
Cr6   O6    S    
C72   O48   A    
C7    C91   A    
C20   H16   S    
Cr1   O17   S    
Cr10  O38   S    
C54   C58   A    
C98   H30   S    
C41   I1    S    
C25   C30   A    
C91   I11   S    
C53   C57   A    
C7    I15   S    
C21   C65   S    
C27   C32   A    
C58   H6    S    
C89   I9    S    
C83   H12   S    
C62   C78   S    
C28   C31   A    
Cr5   O25   S    
C82   H9    S    
C3    O27   A    
Cr3   O43   S    
C44   C52   A    
C6    C10   A    
C37   C61   A    
C5    I13   S    
C101  H36   S    
C27   I23   S    
C45   C81   S    
C53   I5    S    
C63   C79   S    
Cr9   O9    S    
C2    O22   A    
C82   C85   D    
C39   C63   A    
C59   C63   A    
C40   C64   A    
Cr7   O7    S    
C60   C64   A    
C79   O43   A    
C74   O6    A    
C70   O46   A    
C93   H27   S    
Cr5   O5    S    
C50   C54   A    
C3    C10   S    
C80   O16   A    
Cr8   O8    S    
C78   O14   A    
C76   O8    A    
Cr11  O35   S    
Cr12  O40   S    
C103  H45   S    
Cr7   O51   S    
C47   O31   A    
C100  H38   S    
C42   I2    S    
C88   H4    S    
C71   O51   A    
C74   O10   A    
C31   C35   A    
Cr9   O37   S    
C103  C104  S    
C68   O40   A    
C71   O47   A    
C72   O52   A    
C14   I18   S    
C100  C101  S    
C26   I22   S    
C104  H44   S    
Cr1   O1    S    
Cr2   O42   S    
C49   C53   A    
C25   I21   S    
C23   C67   S    
C24   C68   S    
Cr1   O41   S    
C13   C17   A    
C67   O39   A    
Cr3   O3    S    
C40   C44   A    
C87   H3    S    
C97   C98   S    
C26   C29   A    
Cr9   O17   S    
Cr4   O48   S    
C104  H43   S    
C102  C103  S    
C37   C93   S    
C39   C99   S    
C94   H25   S    
Cr10  O18   S    
C3    O23   A    
C4    C9    S    
Cr3   O47   S    
C80   O44   A    
Cr2   O46   S    
C92   I12   S    
C52   C56   A    
Cr12  O16   S    
C27   C28   A    
C4    O24   A    
