data_mof_unit_48353.cif
_audit_creation_date              2012-12-10T18:36:28-0500
_audit_creation_method            fapswitch 2.2
_symmetry_space_group_name_H-M    P1
_symmetry_Int_Tables_number       1
_space_group_crystal_system       triclinic
_cell_length_a                    13.824694
_cell_length_b                    15.146749
_cell_length_c                    15.856212
_cell_angle_alpha                 90.273762
_cell_angle_beta                  70.096018
_cell_angle_gamma                 90.809312
_cell_volume                      3121.6276427

loop_
_atom_site_label
_atom_site_type_symbol
_atom_type_description
_atom_site_fract_x
_atom_site_fract_y
_atom_site_fract_z
_atom_type_partial_charge
C1    C     C_R   0.501337 0.670355 0.498679 0.835696
C2    C     C_R   0.499803 0.329749 0.498551 0.838901
C3    C     C_R   0.376530 0.526454 0.095211 -0.217766
C4    C     C_R   0.624774 0.526877 0.904746 -0.233769
C5    C     C_R   0.305515 0.528610 0.051117 -0.174095
C6    C     C_R   0.695851 0.527446 0.948836 -0.176575
C7    C     C_R   0.406699 0.903188 0.533155 -0.165409
C8    C     C_R   0.560634 0.097116 0.540262 -0.164524
C9    C     C_R   0.408720 0.811532 0.530653 -0.246639
C10   C     C_R   0.561066 0.188778 0.537589 -0.246585
C11   C     C_R   0.502874 0.767220 0.498919 -0.108800
C12   C     C_R   0.498213 0.233071 0.498700 -0.106697
C13   C     C_R   0.595926 0.816762 0.468776 0.381744
C14   C     C_R   0.435098 0.183819 0.461327 0.375558
C15   C     C_R   0.592952 0.908533 0.472484 -0.188313
C16   C     C_R   0.434467 0.092033 0.465178 -0.187384
C17   C     C_R   0.498811 0.951957 0.504409 0.055265
C18   C     C_R   0.497039 0.048463 0.504383 0.054941
C19   C     C_R   0.920726 0.542816 0.431109 0.364463
C20   C     C_R   0.082582 0.548147 0.565306 0.392906
C21   C     C_R   0.817684 0.539976 0.431991 -0.020969
C22   C     C_R   0.185151 0.545671 0.564391 -0.069530
C23   C     C_R   0.437794 0.500536 0.672377 0.822354
C24   C     C_R   0.562238 0.500302 0.327624 0.852825
C25   C     C_R   0.763570 0.459924 0.567929 -0.084680
C26   C     C_R   0.233352 0.454741 0.435695 -0.020965
C27   C     C_R   0.865781 0.457964 0.569381 0.378252
C28   C     C_R   0.131510 0.453012 0.434954 0.368210
C29   C     C_R   0.945147 0.500804 0.500393 0.007896
C30   C     C_R   0.054383 0.500702 0.500214 0.008699
C31   C     C_R   0.401052 0.505808 0.770711 -0.122625
C32   C     C_R   0.599278 0.504338 0.229241 -0.122960
C33   C     C_R   0.264031 0.522959 0.913872 0.492453
C34   C     C_R   0.737160 0.517575 0.085835 0.489316
C35   C     C_R   0.296502 0.513870 0.820493 -0.273443
C36   C     C_R   0.704107 0.512343 0.179507 -0.260477
C37   C     C_R   0.473166 0.505588 0.814553 -0.250992
C38   C     C_R   0.527309 0.503081 0.185241 -0.235484
C39   C     C_R   0.443920 0.516781 0.907737 0.026694
C40   C     C_R   0.556982 0.514728 0.092095 0.026607
C41   C     C_R   0.337350 0.522582 0.957876 0.045427
C42   C     C_R   0.663776 0.520085 0.041981 0.046426
C43   C     C_R   0.517752 0.520343 0.952303 0.094558
C44   C     C_R   0.483304 0.519681 0.047579 0.096525
Cu1   Cu    Cu3+1 0.403570 0.500010 0.500000 0.972521
Cu2   Cu    Cu3+1 0.596430 0.499990 0.500000 0.972119
H1    H     H_    0.224817 0.534534 0.090973 0.205968
H2    H     H_    0.776787 0.532901 0.909023 0.206290
H3    H     H_    0.798520 0.569423 0.377896 0.171896
H4    H     H_    0.205971 0.581035 0.615278 0.149538
H5    H     H_    0.701516 0.429416 0.621323 0.145918
H6    H     H_    0.292130 0.419054 0.384606 0.195522
H7    H     H_    0.448065 0.491490 0.225347 0.168720
H8    H     H_    0.552064 0.494199 0.774396 0.160197
H9    H     H_    0.760618 0.514370 0.212949 0.171901
H10   H     H_    0.239774 0.512923 0.787275 0.173505
H11   H     H_    0.344900 0.533477 0.167012 0.159425
H12   H     H_    0.656689 0.534811 0.833042 0.160177
H13   H     H_    0.333306 0.936105 0.558144 0.144667
H14   H     H_    0.609359 0.064105 0.570869 0.144915
H15   H     H_    0.336355 0.775278 0.554336 0.160909
H16   H     H_    0.609972 0.225112 0.566776 0.159083
H17   H     H_    0.664273 0.946264 0.448157 0.167022
H18   H     H_    0.387175 0.054447 0.435260 0.167640
N1    N     N_R   0.741310 0.499980 0.500000 -0.210211
N2    N     N_R   0.258690 0.500020 0.500000 -0.221377
O1    O     O_R   0.418570 0.628550 0.499990 -0.596085
O2    O     O_R   0.581430 0.371450 0.500010 -0.593852
O3    O     O_R   0.581440 0.628540 0.499990 -0.520466
O4    O     O_R   0.418560 0.371460 0.500010 -0.526540
O5    O     O_R   0.372890 0.500010 0.629830 -0.588034
O6    O     O_R   0.627110 0.499990 0.370170 -0.587653
O7    O     O_R   0.535760 0.500000 0.629840 -0.593038
O8    O     O_R   0.464240 0.500000 0.370160 -0.585488
O9    O     O_3   0.999915 0.580698 0.360774 -0.560323
C45   C     C_3   0.975933 0.667953 0.345002 -0.270240
H19   H     H_    0.940156 0.705497 0.408388 0.180293
H20   H     H_    0.925848 0.668289 0.303145 0.195983
H21   H     H_    0.048464 0.703017 0.306634 0.184260
O10   O     O_3   0.009223 0.593772 0.632067 -0.543684
C46   C     C_3   0.018666 0.684094 0.609319 -0.315497
H22   H     H_    0.008682 0.695360 0.543425 0.162636
H23   H     H_    0.093696 0.712109 0.608874 0.144380
H24   H     H_    0.956934 0.720310 0.660808 0.200424
O11   O     O_3   0.890217 0.419665 0.639065 -0.543415
C47   C     C_3   0.839651 0.337444 0.664878 -0.335344
H25   H     H_    0.838118 0.297187 0.606307 0.139954
H26   H     H_    0.760661 0.347005 0.713156 0.162258
H27   H     H_    0.882389 0.299319 0.700035 0.201094
O12   O     O_3   0.109094 0.407837 0.367863 -0.548148
C48   C     C_3   0.083662 0.319814 0.396015 -0.270639
H28   H     H_    0.014704 0.316170 0.458013 0.151253
H29   H     H_    0.149581 0.286100 0.406590 0.207930
H30   H     H_    0.064811 0.283481 0.342589 0.193994
O13   O     O_3   0.160027 0.526614 0.962744 -0.596122
C49   C     C_3   0.125178 0.612260 0.955147 -0.314695
H31   H     H_    0.128026 0.625896 0.885464 0.168741
H32   H     H_    0.169839 0.663481 0.977473 0.155020
H33   H     H_    0.043728 0.616934 0.999522 0.232654
O14   O     O_3   0.841052 0.526309 0.037502 -0.596162
C50   C     C_3   0.886566 0.442676 0.030952 -0.295121
H34   H     H_    0.847783 0.392928 0.000896 0.153854
H35   H     H_    0.886588 0.419685 0.097468 0.172354
H36   H     H_    0.967815 0.448177 0.986020 0.236450
Cl1   Cl    Cl    0.717951 0.768681 0.421152 -0.688717
Cl2   Cl    Cl    0.360625 0.232730 0.403875 -0.677651

loop_
_geom_bond_atom_site_label_1
_geom_bond_atom_site_label_2
_ccdc_geom_bond_type
C50   H34   S    
C27   C29   A    
O13   C49   S    
C1    C11   S    
C45   H21   S    
C43   C44   A    
C2    C12   S    
C21   H3    S    
C46   H22   S    
C39   C41   A    
C20   C30   A    
O11   C47   S    
C5    H1    S    
C6    H2    S    
C9    H15   S    
C32   C36   A    
C19   C21   A    
C45   H20   S    
C2    O2    A    
C47   H26   S    
Cu1   O5    S    
C49   H33   S    
C7    C9    A    
C27   O11   S    
C22   N2    A    
Cu2   O3    S    
C1    O1    A    
C34   C42   A    
C7    C17   A    
C49   H32   S    
Cu1   O1    S    
C34   O14   S    
C32   C38   A    
Cu2   O6    S    
C22   H4    S    
C40   C42   A    
C35   H10   S    
C50   H35   S    
C10   H16   S    
C23   O7    A    
C33   O13   S    
C7    H13   S    
C46   H23   S    
C3    C44   A    
C20   O10   S    
C26   N2    A    
C23   O5    A    
C25   N1    A    
C45   H19   S    
Cu2   N1    S    
C4    C6    A    
C48   H28   S    
C47   H25   S    
C39   C43   A    
Cu1   Cu2   S    
C1    O3    A    
C31   C37   A    
Cu1   O8    S    
C23   C31   S    
O9    C45   S    
C24   C32   S    
Cu2   O2    S    
C29   C30   S    
C26   H6    S    
C48   H29   S    
C14   Cl2   S    
C49   H31   S    
C17   C18   S    
C9    C11   A    
C10   C12   A    
C37   H8    S    
C3    H11   S    
C13   Cl1   S    
C12   C14   A    
C50   H36   S    
C13   C15   A    
C14   C16   A    
C19   C29   A    
C46   H24   S    
C24   O6    A    
C15   C17   A    
C5    C41   A    
C21   N1    A    
Cu1   O4    S    
C8    C10   A    
C20   C22   A    
O10   C46   S    
C3    C5    A    
C47   H27   S    
C4    C43   A    
C25   C27   A    
C26   C28   A    
C25   H5    S    
C33   C41   A    
C28   C30   A    
C37   C39   A    
C36   H9    S    
C8    H14   S    
C48   H30   S    
C38   C40   A    
C11   C13   A    
C24   O8    A    
O12   C48   S    
C38   H7    S    
C31   C35   A    
C19   O9    S    
O14   C50   S    
C33   C35   A    
C34   C36   A    
C8    C18   A    
C40   C44   A    
C16   C18   A    
C6    C42   A    
C4    H12   S    
Cu1   N2    S    
C15   H17   S    
C28   O12   S    
C16   H18   S    
C2    O4    A    
Cu2   O7    S    
