data_mof_unit_21287.cif
_audit_creation_date              2012-12-11T15:53:41-0500
_audit_creation_method            fapswitch 2.2
_symmetry_space_group_name_H-M    P1
_symmetry_Int_Tables_number       1
_space_group_crystal_system       triclinic
_cell_length_a                    10.709073
_cell_length_b                    10.709381
_cell_length_c                    17.07268
_cell_angle_alpha                 80.762206
_cell_angle_beta                  99.502855
_cell_angle_gamma                 118.525405
_cell_volume                      1689.16660408

loop_
_atom_site_label
_atom_site_type_symbol
_atom_type_description
_atom_site_fract_x
_atom_site_fract_y
_atom_site_fract_z
_atom_type_partial_charge
C1    C     C_R   0.361788 0.230317 0.627678 0.540914
C2    C     C_1   0.320621 0.160100 0.778214 -0.039347
C3    C     C_1   0.339713 0.661969 0.277104 -0.030255
C4    C     C_R   0.413173 0.620886 0.601613 0.553159
C5    C     C_1   0.327777 0.671993 0.206370 -0.045541
C6    C     C_R   0.818599 0.659401 0.153418 -0.023609
C7    C     C_R   0.821518 0.549804 0.208414 0.013631
C8    C     C_R   0.822665 0.552279 0.286599 -0.020870
C9    C     C_R   0.776199 0.754234 0.261112 0.083211
C10   C     C_R   0.788817 0.758815 0.179614 -0.124652
C11   C     C_3   0.842931 0.418163 0.220720 0.221957
C12   C     C_R   0.512141 0.712347 0.734865 -0.158497
C13   C     C_3   0.840242 0.420275 0.310649 0.375262
C14   C     C_R   0.800554 0.650886 0.316903 0.007888
C15   C     C_R   0.263900 0.061212 0.178588 -0.023729
C16   C     C_R   0.776979 0.619045 0.626861 0.532857
C17   C     C_R   0.165558 0.088477 0.207332 0.043909
C18   C     C_R   0.185121 0.121185 0.284000 0.067333
C19   C     C_R   0.389633 0.079145 0.312790 -0.167649
C20   C     C_R   0.368600 0.042599 0.234185 -0.155622
C21   C     C_3   0.096930 0.184781 0.177441 0.208648
C22   C     C_3   0.114884 0.215476 0.263825 0.196065
C23   C     C_R   0.489843 0.727464 0.810592 -0.146049
C24   C     C_R   0.306660 0.135018 0.334737 -0.033665
C25   C     C_R   0.891372 0.701748 0.855950 0.553095
C26   C     C_R   0.315533 0.706070 0.898276 0.547124
C27   C     C_R   0.284000 0.113950 0.857660 0.562491
C28   C     C_R   0.348726 0.221579 0.401439 0.532790
C29   C     C_R   0.881983 0.688544 0.080911 0.546076
C30   C     C_R   0.314125 0.700274 0.123365 0.551303
C31   C     C_R   0.247451 0.040676 0.094810 0.572819
C32   C     C_R   0.366857 0.653016 0.360294 0.568412
C33   C     C_R   0.766185 0.620224 0.397904 0.550458
C34   C     C_3   0.092892 0.497985 0.768993 -0.009625
C35   C     C_R   0.351936 0.651809 0.836724 -0.007197
C36   C     C_R   0.247755 0.540232 0.793451 0.017402
C37   C     C_R   0.270869 0.524246 0.718957 0.002225
C38   C     C_3   0.117859 0.479998 0.686808 0.164483
C39   C     C_R   0.397529 0.620062 0.685150 -0.023737
C40   C     C_1   0.822590 0.656707 0.706083 -0.057104
C41   C     C_1   0.850174 0.684311 0.773868 -0.052126
C42   C     C_1   0.345684 0.188475 0.709976 -0.039212
Cr1   Cr    Cr6+3 0.608440 0.389080 0.519680 1.070784
Cr2   Cr    Cr6+3 0.288640 0.400090 0.490760 1.061870
Cr3   Cr    Cr6+3 0.602940 0.710800 0.489510 1.052991
Cr4   Cr    Cr6+3 0.052530 0.947560 0.964210 1.010432
Cr5   Cr    Cr6+3 0.059970 0.626800 0.992920 0.984129
Cr6   Cr    Cr6+3 0.373320 0.938440 0.995370 1.014056
H1    H     H_    0.615439 0.780611 0.713052 0.150006
H2    H     H_    0.732428 0.204630 0.203334 0.239009
H3    H     H_    0.636043 0.311534 0.320559 0.337409
H4    H     H_    0.981334 0.354428 0.374521 0.279002
H5    H     H_    0.974529 0.484464 0.413095 0.251223
H6    H     H_    0.904318 0.178512 0.132468 0.218326
H7    H     H_    0.944812 0.074903 0.089495 0.245281
H8    H     H_    0.290182 0.342578 0.138270 0.224569
H9    H     H_    0.150102 0.299879 0.066932 0.263436
H10   H     H_    0.934816 0.205843 0.276396 0.354056
H11   H     H_    0.005950 0.383553 0.871097 0.244642
H12   H     H_    0.476099 0.073865 0.353577 0.184851
H13   H     H_    0.895248 0.335065 0.787582 0.257880
H14   H     H_    0.080014 0.278937 0.702949 0.361349
H15   H     H_    0.813417 0.912298 0.325683 0.302169
H16   H     H_    0.718727 0.915625 0.237281 0.245201
H17   H     H_    0.972121 0.416963 0.143306 0.270275
H18   H     H_    0.054307 0.547446 0.206070 0.257537
H19   H     H_    0.439225 0.009034 0.215898 0.163813
H20   H     H_    0.185665 0.329145 0.275197 0.156390
H21   H     H_    0.576597 0.809176 0.844532 0.150052
H22   H     H_    0.064402 0.585101 0.769285 0.118634
H23   H     H_    0.104536 0.557327 0.638698 0.142316
H24   H     H_    0.776242 0.839295 0.137028 0.149711
H25   H     H_    0.720538 0.313825 0.122951 0.236235
N1    N     N_3   0.720411 0.296463 0.184983 -0.613531
N2    N     N_3   0.975733 0.450158 0.359403 -0.571000
N3    N     N_3   0.947744 0.107694 0.144439 -0.609143
N4    N     N_3   0.181536 0.315234 0.127323 -0.641431
N5    N     N_3   0.000331 0.363784 0.812294 -0.586545
N6    N     N_3   0.731831 0.847933 0.285629 -0.558709
N7    N     N_3   0.980806 0.440502 0.201524 -0.623503
O1    O     O_R   0.754020 0.497590 0.609930 -0.494731
O2    O     O_R   0.406180 0.826930 0.920660 -0.516978
O3    O     O_R   0.358620 0.062870 0.901950 -0.491574
O4    O     O_R   0.481420 0.271390 0.600630 -0.491918
O5    O     O_R   0.163910 0.085460 0.050210 -0.531870
O6    O     O_R   0.935200 0.815170 0.045770 -0.523291
O7    O     O_R   0.916120 0.596690 0.069430 -0.533630
O8    O     O_R   0.192310 0.631200 0.086170 -0.503644
O9    O     O_R   0.406770 0.819480 0.096420 -0.527927
O10   O     O_R   0.359170 0.055960 0.064880 -0.497400
O11   O     O_3   0.161940 0.837600 0.984160 -0.271377
O12   O     O_R   0.295080 0.533620 0.397890 -0.496940
O13   O     O_R   0.263810 0.254550 0.589590 -0.495913
O14   O     O_R   0.300820 0.531200 0.560890 -0.481068
O15   O     O_R   0.491480 0.744020 0.564270 -0.505405
O16   O     O_R   0.726290 0.693800 0.583010 -0.514615
O17   O     O_R   0.747830 0.500190 0.434090 -0.491018
O18   O     O_R   0.475680 0.273800 0.437630 -0.488445
O19   O     O_R   0.257620 0.257160 0.413750 -0.494192
O20   O     O_3   0.723106 0.303365 0.344256 -0.665050
O21   O     O_3   0.988129 0.152966 0.300180 -0.705799
O22   O     O_3   0.043985 0.338558 0.665540 -0.646346
O23   O     O_R   0.485280 0.746620 0.388440 -0.485813
O24   O     O_R   0.720550 0.696220 0.420010 -0.481540
O25   O     O_3   0.500010 0.499990 0.499980 -0.297969
O26   O     O_R   0.163320 0.092900 0.874450 -0.493444
O27   O     O_R   0.934650 0.822080 0.882840 -0.492275
O28   O     O_R   0.915520 0.604140 0.893670 -0.523504
O29   O     O_R   0.191760 0.638110 0.923230 -0.505120

loop_
_geom_bond_atom_site_label_1
_geom_bond_atom_site_label_2
_ccdc_geom_bond_type
C8    C13   S    
C31   O5    A    
C33   O24   A    
H25   N1    S    
C23   H21   S    
C20   H19   S    
C19   C20   A    
Cr1   O18   S    
H4    N2    S    
C14   C33   S    
C12   H1    S    
C7    C8    A    
H15   N6    S    
Cr2   O25   S    
C1    O4    A    
C7    C11   S    
C21   N3    S    
C22   O21   S    
C18   C24   A    
C36   C37   A    
H2    N1    S    
Cr1   O25   S    
Cr2   O19   S    
C9    N6    S    
Cr2   O13   S    
Cr3   O23   S    
C35   C36   A    
Cr6   O11   S    
C13   N2    S    
C2    C27   S    
C9    C10   A    
C34   H22   S    
C34   C36   S    
Cr2   O12   S    
Cr4   O5    S    
C26   O2    A    
H17   N7    S    
Cr6   O10   S    
C21   C22   S    
Cr1   O4    S    
H5    N2    S    
C30   O9    A    
H11   N5    S    
Cr3   O25   S    
C15   C20   A    
C16   O16   A    
H9    N4    S    
C25   C41   S    
Cr4   O11   S    
C27   O26   A    
Cr5   O29   S    
C12   C39   A    
C17   C21   S    
H8    N4    S    
Cr5   O7    S    
C9    C14   A    
C37   C38   S    
Cr3   O24   S    
C4    O15   A    
C1    C42   S    
C12   C23   A    
C4    C39   S    
H13   N5    S    
C31   O10   A    
Cr4   O27   S    
C17   C18   A    
C32   O23   A    
H10   O21   S    
C26   O29   A    
C22   H20   S    
C29   O6    A    
C16   C40   S    
C4    O14   A    
H7    N3    S    
C28   O19   A    
C1    O13   A    
C40   C41   T    
Cr5   O28   S    
C23   C35   A    
Cr6   O9    S    
Cr1   O1    S    
H16   N6    S    
H6    N3    S    
C30   O8    A    
Cr3   O15   S    
C25   O27   A    
C5    C30   S    
C28   O18   A    
H3    O20   S    
C15   C17   A    
C38   H23   S    
C8    C14   A    
C34   C38   S    
Cr5   O11   S    
C24   C28   S    
C3    C5    T    
C11   N1    S    
C6    C10   A    
C15   C31   S    
C6    C7    A    
C19   H12   S    
H18   N7    S    
Cr6   O3    S    
Cr5   O8    S    
C13   O20   S    
C18   C22   S    
C19   C24   A    
C38   O22   S    
C34   N5    S    
C11   C13   S    
C32   O12   A    
C2    C42   T    
Cr4   O26   S    
C27   O3    A    
C16   O1    A    
Cr6   O2    S    
C33   O17   A    
C3    C32   S    
C29   O7    A    
Cr2   O14   S    
C11   N7    S    
C26   C35   S    
C6    C29   S    
C37   C39   A    
Cr1   O17   S    
C21   N4    S    
Cr4   O6    S    
Cr3   O16   S    
C25   O28   A    
H14   O22   S    
C10   H24   S    
