data_mof_unit_62855.cif
_audit_creation_date              2012-12-10T20:16:09-0500
_audit_creation_method            fapswitch 2.2
_symmetry_space_group_name_H-M    P1
_symmetry_Int_Tables_number       1
_space_group_crystal_system       triclinic
_cell_length_a                    35.397861
_cell_length_b                    35.401608
_cell_length_c                    30.209691
_cell_angle_alpha                 90.008793
_cell_angle_beta                  90.000126
_cell_angle_gamma                 90.006222
_cell_volume                      37857.0077369

loop_
_atom_site_label
_atom_site_type_symbol
_atom_type_description
_atom_site_fract_x
_atom_site_fract_y
_atom_site_fract_z
_atom_type_partial_charge
C1    C     C_R   0.999999 0.426667 0.500004 0.952117
C2    C     C_R   0.426667 0.999999 0.499993 0.952536
C3    C     C_R   0.000000 0.573348 0.500000 0.953466
C4    C     C_R   0.573331 0.000000 0.499995 0.953855
C5    C     C_R   0.500000 0.926658 0.999999 0.953963
C6    C     C_R   0.926667 0.499999 0.999997 0.953366
C7    C     C_R   0.500003 0.073333 0.000009 0.952574
C8    C     C_R   0.073334 0.500001 0.999989 0.951764
C9    C     C_R   0.999996 0.114025 0.500009 -0.027458
C10   C     C_R   0.114023 0.999999 0.499997 -0.027479
C11   C     C_R   0.999988 0.885984 0.500007 -0.027689
C12   C     C_R   0.885975 0.000001 0.499998 -0.027453
C13   C     C_R   0.500000 0.614019 0.000014 -0.027546
C14   C     C_R   0.614023 0.500004 0.999992 -0.027412
C15   C     C_R   0.499994 0.385975 0.999999 -0.027433
C16   C     C_R   0.385977 0.500000 0.999999 -0.027472
C17   C     C_R   0.000002 0.192602 0.500018 0.108885
C18   C     C_R   0.192600 0.000005 0.499992 0.108742
C19   C     C_R   0.000005 0.807420 0.500108 0.107963
C20   C     C_R   0.807397 0.999997 0.499985 0.108998
C21   C     C_R   0.499997 0.692588 0.000054 0.108290
C22   C     C_R   0.692600 0.500002 0.999947 0.108888
C23   C     C_R   0.499996 0.307398 0.000040 0.108947
C24   C     C_R   0.307401 0.499994 0.999994 0.108710
C25   C     C_1   0.000005 0.232858 0.500016 0.026493
C26   C     C_1   0.232855 0.000010 0.499997 0.026616
C27   C     C_1   0.000007 0.767174 0.500143 0.026458
C28   C     C_1   0.767141 0.999994 0.499986 0.026234
C29   C     C_1   0.499999 0.732838 0.000061 0.026463
C30   C     C_1   0.732854 0.500002 0.999931 0.026115
C31   C     C_1   0.499996 0.267142 0.000058 0.026390
C32   C     C_1   0.267147 0.499990 0.999997 0.026603
C33   C     C_1   0.000005 0.266585 0.500012 0.155578
C34   C     C_1   0.266582 0.000012 0.500003 0.155765
C35   C     C_1   0.000012 0.733454 0.500148 0.155394
C36   C     C_1   0.733412 0.999995 0.499989 0.155344
C37   C     C_1   0.499998 0.766561 0.000055 0.155786
C38   C     C_1   0.766582 0.499998 0.999928 0.155349
C39   C     C_1   0.500000 0.233415 0.000064 0.155481
C40   C     C_1   0.233420 0.499991 1.000000 0.155784
C41   C     C_R   0.017625 0.326749 0.534677 0.396209
C42   C     C_R   0.326732 0.982060 0.534441 0.395215
C43   C     C_R   0.979409 0.673294 0.532647 0.394364
C44   C     C_R   0.673261 0.017263 0.534923 0.395536
C45   C     C_R   0.020624 0.673337 0.467551 0.395936
C46   C     C_R   0.326737 0.017956 0.465566 0.396284
C47   C     C_R   0.982376 0.326732 0.465337 0.395296
C48   C     C_R   0.673254 0.982727 0.465070 0.395368
C49   C     C_R   0.519446 0.826721 0.033407 0.394767
C50   C     C_R   0.826722 0.482345 0.034600 0.395247
C51   C     C_R   0.482537 0.173252 0.034832 0.396310
C52   C     C_R   0.173271 0.518118 0.034318 0.395432
C53   C     C_R   0.517495 0.173266 0.965282 0.395034
C54   C     C_R   0.826747 0.517633 0.965292 0.395251
C55   C     C_R   0.480561 0.826691 0.966645 0.396028
C56   C     C_R   0.173267 0.481875 0.965678 0.396170
C57   C     C_R   0.017860 0.366099 0.534289 -0.168337
C58   C     C_R   0.366083 0.981814 0.534039 -0.163832
C59   C     C_R   0.979185 0.633949 0.532180 -0.162097
C60   C     C_R   0.633909 0.017522 0.534525 -0.165431
C61   C     C_R   0.020828 0.633991 0.467930 -0.170164
C62   C     C_R   0.366089 0.018183 0.465953 -0.169402
C63   C     C_R   0.982132 0.366081 0.465731 -0.165836
C64   C     C_R   0.633902 0.982471 0.465468 -0.165311
C65   C     C_R   0.519678 0.866067 0.032977 -0.162742
C66   C     C_R   0.866072 0.482090 0.034214 -0.165682
C67   C     C_R   0.482296 0.133902 0.034428 -0.168648
C68   C     C_R   0.133919 0.518362 0.033912 -0.164668
C69   C     C_R   0.517749 0.133918 0.965668 -0.164370
C70   C     C_R   0.866098 0.517889 0.965713 -0.165056
C71   C     C_R   0.480340 0.866039 0.967041 -0.168300
C72   C     C_R   0.133915 0.481647 0.966066 -0.169031
C73   C     C_R   0.999994 0.385662 0.500008 -0.147475
C74   C     C_R   0.385659 0.999995 0.499994 -0.146762
C75   C     C_R   0.000002 0.614379 0.500034 -0.144777
C76   C     C_R   0.614335 0.000002 0.499995 -0.149559
C77   C     C_R   0.500003 0.885636 0.000006 -0.146359
C78   C     C_R   0.885659 0.499993 0.999976 -0.149917
C79   C     C_R   0.500014 0.114338 0.000032 -0.148370
C80   C     C_R   0.114343 0.500007 0.999989 -0.146211
C81   C     C_R   0.000003 0.306988 0.500007 -0.091776
C82   C     C_R   0.306984 0.000012 0.500006 -0.091591
C83   C     C_R   0.000019 0.693060 0.500120 -0.090752
C84   C     C_R   0.693009 0.999995 0.499994 -0.092831
C85   C     C_R   0.499999 0.806958 0.000038 -0.091158
C86   C     C_R   0.806984 0.499991 0.999939 -0.092512
C87   C     C_R   0.500010 0.193011 0.000059 -0.092211
C88   C     C_R   0.193019 0.499993 0.000000 -0.091333
C89   C     C_R   0.072997 0.999998 0.500001 0.844727
C90   C     C_R   0.999999 0.927005 0.499998 0.844812
C91   C     C_R   0.927002 0.000003 0.500000 0.844654
C92   C     C_R   0.999996 0.072998 0.500003 0.844568
C93   C     C_R   0.572997 0.499999 0.000000 0.844658
C94   C     C_R   0.500000 0.427002 0.999997 0.844579
C95   C     C_R   0.427003 0.500003 0.000000 0.844708
C96   C     C_R   0.499997 0.572996 0.000003 0.844720
C97   C     C_R   0.999973 0.500150 0.413344 0.999084
C98   C     C_R   0.500028 0.999947 0.413374 0.998062
C99   C     C_R   0.999945 0.500060 0.586620 1.000093
C100  C     C_R   0.500022 0.000029 0.586629 1.001013
C101  C     C_R   0.500014 0.999900 0.913370 0.999507
C102  C     C_R   0.999977 0.500049 0.913373 0.998200
C103  C     C_R   0.500054 0.999924 0.086620 0.999909
C104  C     C_R   0.000001 0.499984 0.086610 0.999070
C105  C     C_R   0.030775 0.482617 0.156444 0.356075
C106  C     C_R   0.483072 0.970391 0.156879 0.358310
C107  C     C_R   0.971375 0.517716 0.157022 0.359937
C108  C     C_R   0.518187 0.029958 0.156670 0.352502
C109  C     C_R   0.029890 0.518566 0.843328 0.353184
C110  C     C_R   0.482274 0.028754 0.843059 0.358684
C111  C     C_R   0.970902 0.482531 0.843045 0.359393
C112  C     C_R   0.517768 0.969511 0.843388 0.352554
C113  C     C_R   0.529511 0.982652 0.656864 0.356334
C114  C     C_R   0.981804 0.470010 0.656658 0.352378
C115  C     C_R   0.469847 0.017469 0.656681 0.354548
C116  C     C_R   0.016915 0.529578 0.656892 0.358468
C117  C     C_R   0.529103 0.017457 0.343051 0.359351
C118  C     C_R   0.981706 0.529896 0.343231 0.351055
C119  C     C_R   0.470112 0.981427 0.343330 0.353110
C120  C     C_R   0.018266 0.471150 0.343131 0.355784
C121  C     C_R   0.000709 0.499986 0.134347 -0.265877
C122  C     C_R   0.500318 0.000182 0.134442 -0.265851
C123  C     C_R   0.000349 0.500286 0.865549 -0.266588
C124  C     C_R   0.500039 0.999331 0.865570 -0.266004
C125  C     C_R   0.499834 0.000129 0.634442 -0.265630
C126  C     C_R   0.999675 0.499786 0.634441 -0.265945
C127  C     C_R   0.499657 0.999706 0.365551 -0.266486
C128  C     C_R   0.999922 0.500381 0.365477 -0.266668
C129  C     C_R   0.974807 0.523228 0.202949 -0.091958
C130  C     C_R   0.520936 0.028821 0.203489 -0.093276
C131  C     C_R   0.029241 0.479202 0.203151 -0.093085
C132  C     C_R   0.478105 0.973001 0.203036 -0.090890
C133  C     C_R   0.973749 0.477491 0.796958 -0.091174
C134  C     C_R   0.520692 0.970741 0.796591 -0.092834
C135  C     C_R   0.028629 0.521416 0.796507 -0.093361
C136  C     C_R   0.477255 0.025962 0.796930 -0.091442
C137  C     C_R   0.471509 0.021122 0.703331 -0.092925
C138  C     C_R   0.021903 0.526947 0.703038 -0.091046
C139  C     C_R   0.526900 0.977753 0.703149 -0.091335
C140  C     C_R   0.979078 0.471129 0.703483 -0.093198
C141  C     C_R   0.471368 0.978584 0.296508 -0.093374
C142  C     C_R   0.022738 0.473344 0.296713 -0.091952
C143  C     C_R   0.526267 0.022484 0.296963 -0.091114
C144  C     C_R   0.979558 0.529177 0.296395 -0.093058
C145  C     C_R   0.001838 0.501273 0.226425 -0.090317
C146  C     C_R   0.499333 0.000871 0.226514 -0.089184
C147  C     C_R   0.001058 0.499358 0.773463 -0.089505
C148  C     C_R   0.499005 0.998624 0.773437 -0.089060
C149  C     C_R   0.499024 0.999111 0.726548 -0.088825
C150  C     C_R   0.000679 0.499089 0.726513 -0.089123
C151  C     C_R   0.498951 0.000613 0.273465 -0.089527
C152  C     C_R   0.001436 0.501381 0.273318 -0.087941
C153  C     C_R   0.953109 0.550546 0.225759 0.364558
C154  C     C_R   0.543986 0.054188 0.228148 0.363563
C155  C     C_R   0.053277 0.454523 0.227306 0.363523
C156  C     C_R   0.451979 0.949962 0.226343 0.362428
C157  C     C_R   0.951444 0.450693 0.773800 0.363037
C158  C     C_R   0.544365 0.945906 0.772047 0.363079
C159  C     C_R   0.053414 0.545073 0.771882 0.363372
C160  C     C_R   0.451076 0.048879 0.773719 0.363296
C161  C     C_R   0.447123 0.045500 0.727653 0.361018
C162  C     C_R   0.048057 0.549970 0.726326 0.362376
C163  C     C_R   0.549970 0.951751 0.726627 0.362425
C164  C     C_R   0.956069 0.445739 0.728150 0.363557
C165  C     C_R   0.446571 0.954931 0.271880 0.363322
C166  C     C_R   0.047948 0.449508 0.272917 0.362036
C167  C     C_R   0.548593 0.049252 0.273801 0.363069
C168  C     C_R   0.956956 0.554875 0.271589 0.363189
C169  C     C_R   0.028126 0.173020 0.523015 -0.105645
C170  C     C_R   0.173014 0.971886 0.522993 -0.105558
C171  C     C_R   0.972032 0.827014 0.523347 -0.106051
C172  C     C_R   0.826982 0.028142 0.522953 -0.105806
C173  C     C_R   0.027966 0.826986 0.476818 -0.105711
C174  C     C_R   0.173016 0.028121 0.476989 -0.105661
C175  C     C_R   0.971876 0.173013 0.477019 -0.105750
C176  C     C_R   0.826982 0.971852 0.477022 -0.105729
C177  C     C_R   0.528045 0.673006 0.023176 -0.105929
C178  C     C_R   0.673019 0.471865 0.022925 -0.105891
C179  C     C_R   0.471850 0.326991 0.022996 -0.105686
C180  C     C_R   0.326986 0.528092 0.023040 -0.105653
C181  C     C_R   0.528138 0.326978 0.977065 -0.105746
C182  C     C_R   0.673010 0.528142 0.976991 -0.105879
C183  C     C_R   0.471952 0.673006 0.976914 -0.105711
C184  C     C_R   0.326984 0.471897 0.976948 -0.105716
C185  C     C_R   0.027936 0.133700 0.523341 -0.177602
C186  C     C_R   0.133693 0.972069 0.523328 -0.177610
C187  C     C_R   0.972214 0.866329 0.523628 -0.177878
C188  C     C_R   0.866304 0.027960 0.523294 -0.177756
C189  C     C_R   0.027770 0.866301 0.476435 -0.177949
C190  C     C_R   0.133695 0.027931 0.476661 -0.177701
C191  C     C_R   0.972058 0.133694 0.476681 -0.177754
C192  C     C_R   0.866304 0.972041 0.476697 -0.177564
C193  C     C_R   0.527857 0.633688 0.023487 -0.177875
C194  C     C_R   0.633698 0.472051 0.023281 -0.177862
C195  C     C_R   0.472036 0.366310 0.023306 -0.177585
C196  C     C_R   0.366307 0.527911 0.023376 -0.177726
C197  C     C_R   0.527953 0.366297 0.976711 -0.177778
C198  C     C_R   0.633689 0.527956 0.976682 -0.177688
C199  C     C_R   0.472140 0.633690 0.976560 -0.177852
C200  C     C_R   0.366306 0.472089 0.976621 -0.177752
H1    H     H_    0.050128 0.188158 0.540574 0.172283
H2    H     H_    0.188155 0.949891 0.540551 0.172465
H3    H     H_    0.950155 0.811885 0.541129 0.173593
H4    H     H_    0.811840 0.050158 0.540482 0.172047
H5    H     H_    0.049850 0.811833 0.459075 0.173742
H6    H     H_    0.188157 0.050116 0.459428 0.172437
H7    H     H_    0.949875 0.188150 0.459465 0.172218
H8    H     H_    0.811843 0.949837 0.459486 0.172124
H9    H     H_    0.549985 0.688143 0.040844 0.173071
H10   H     H_    0.688165 0.449853 0.040449 0.172230
H11   H     H_    0.449836 0.311859 0.040537 0.172171
H12   H     H_    0.311844 0.550072 0.040631 0.172537
H13   H     H_    0.550156 0.311832 0.959541 0.172135
H14   H     H_    0.688146 0.550151 0.959449 0.172247
H15   H     H_    0.450011 0.688148 0.959261 0.173166
H16   H     H_    0.311845 0.449917 0.959352 0.172523
H17   H     H_    0.049868 0.118606 0.541041 0.154460
H18   H     H_    0.118597 0.950142 0.541033 0.154511
H19   H     H_    0.950404 0.881435 0.541524 0.154867
H20   H     H_    0.881399 0.049906 0.540972 0.154414
H21   H     H_    0.049581 0.881383 0.458516 0.154942
H22   H     H_    0.118598 0.049855 0.458955 0.154472
H23   H     H_    0.950127 0.118599 0.458977 0.154406
H24   H     H_    0.881402 0.950096 0.459022 0.154465
H25   H     H_    0.549728 0.618592 0.041285 0.154625
H26   H     H_    0.618606 0.450109 0.040963 0.154422
H27   H     H_    0.450092 0.381412 0.040981 0.154413
H28   H     H_    0.381402 0.549821 0.041115 0.154535
H29   H     H_    0.549900 0.381386 0.959031 0.154353
H30   H     H_    0.618587 0.549895 0.959009 0.154453
H31   H     H_    0.450270 0.618598 0.958748 0.154729
H32   H     H_    0.381403 0.450179 0.958882 0.154491
H33   H     H_    0.031344 0.381422 0.561052 0.202821
H34   H     H_    0.381399 0.968084 0.560632 0.205752
H35   H     H_    0.963440 0.618630 0.557349 0.205696
H36   H     H_    0.618594 0.030752 0.561474 0.207161
H37   H     H_    0.036569 0.618706 0.442724 0.200929
H38   H     H_    0.381409 0.031910 0.439361 0.202159
H39   H     H_    0.968645 0.381392 0.438965 0.205208
H40   H     H_    0.618584 0.969232 0.438529 0.207944
H41   H     H_    0.534552 0.881384 0.058768 0.206474
H42   H     H_    0.881377 0.468567 0.060961 0.207784
H43   H     H_    0.468922 0.118577 0.061266 0.203090
H44   H     H_    0.118605 0.532227 0.060415 0.204503
H45   H     H_    0.531146 0.118609 0.938830 0.207613
H46   H     H_    0.881424 0.531409 0.938980 0.207655
H47   H     H_    0.465487 0.881336 0.941223 0.202253
H48   H     H_    0.118597 0.467787 0.939562 0.202036
O1    O     O_R   0.968680 0.444530 0.500050 -0.598408
O2    O     O_R   0.444530 0.031320 0.500050 -0.600090
O3    O     O_R   0.031320 0.555470 0.500050 -0.602967
O4    O     O_R   0.555470 0.968680 0.500050 -0.599625
O5    O     O_R   0.968680 0.555470 0.499950 -0.599522
O6    O     O_R   0.444530 0.968680 0.499950 -0.598565
O7    O     O_R   0.031320 0.444530 0.499950 -0.599714
O8    O     O_R   0.555470 0.031320 0.499950 -0.600427
O9    O     O_R   0.468680 0.944530 0.000050 -0.602159
O10   O     O_R   0.944530 0.531320 0.000050 -0.600787
O11   O     O_R   0.531320 0.055470 0.000050 -0.597921
O12   O     O_R   0.055470 0.468680 0.000050 -0.599738
O13   O     O_R   0.468680 0.055470 0.999950 -0.600987
O14   O     O_R   0.944530 0.468680 0.999950 -0.600148
O15   O     O_R   0.531320 0.944530 0.999950 -0.599162
O16   O     O_R   0.055470 0.531320 0.999950 -0.598751
O17   O     O_R   0.968670 0.499990 0.433970 -0.587124
O18   O     O_R   0.499990 0.031330 0.433970 -0.595008
O19   O     O_R   0.031330 0.500010 0.433970 -0.592397
O20   O     O_R   0.500010 0.968670 0.433970 -0.586556
O21   O     O_R   0.968670 0.500010 0.566030 -0.586740
O22   O     O_R   0.499990 0.968670 0.566030 -0.592272
O23   O     O_R   0.031330 0.499990 0.566030 -0.595366
O24   O     O_R   0.500010 0.031330 0.566030 -0.590772
O25   O     O_R   0.468670 0.999990 0.933970 -0.594705
O26   O     O_R   0.999990 0.531330 0.933970 -0.586456
O27   O     O_R   0.531330 0.000010 0.933970 -0.587241
O28   O     O_R   0.000010 0.468670 0.933970 -0.595019
O29   O     O_R   0.468670 0.000010 0.066030 -0.595209
O30   O     O_R   0.999990 0.468670 0.066030 -0.588896
O31   O     O_R   0.531330 0.999990 0.066030 -0.586915
O32   O     O_R   0.000010 0.531330 0.066030 -0.594427
O33   O     O_R   0.055290 0.999950 0.462720 -0.605506
O34   O     O_R   0.999950 0.944710 0.462720 -0.605629
O35   O     O_R   0.944710 0.000050 0.462720 -0.605552
O36   O     O_R   0.000050 0.055290 0.462720 -0.605541
O37   O     O_R   0.055290 0.000050 0.537280 -0.605547
O38   O     O_R   0.999950 0.055290 0.537280 -0.605492
O39   O     O_R   0.944710 0.999950 0.537280 -0.605514
O40   O     O_R   0.000050 0.944710 0.537280 -0.605726
O41   O     O_R   0.555290 0.499950 0.962720 -0.605550
O42   O     O_R   0.499950 0.444710 0.962720 -0.605555
O43   O     O_R   0.444710 0.500050 0.962720 -0.605550
O44   O     O_R   0.500050 0.555290 0.962720 -0.605571
O45   O     O_R   0.555290 0.500050 0.037280 -0.605555
O46   O     O_R   0.499950 0.555290 0.037280 -0.605678
O47   O     O_R   0.444710 0.499950 0.037280 -0.605573
O48   O     O_R   0.500050 0.444710 0.037280 -0.605469
Zn1   Zn    Zn3+2 0.958180 0.500000 0.500000 1.123193
Zn2   Zn    Zn3+2 0.500000 0.041820 0.500000 1.117721
Zn3   Zn    Zn3+2 0.041820 0.500000 0.500000 1.116173
Zn4   Zn    Zn3+2 0.500000 0.958180 0.500000 1.121200
Zn5   Zn    Zn3+2 0.458180 0.000000 0.000000 1.115528
Zn6   Zn    Zn3+2 0.000000 0.541820 0.000000 1.120735
Zn7   Zn    Zn3+2 0.541820 0.000000 0.000000 1.123209
Zn8   Zn    Zn3+2 1.000000 0.458180 0.000000 1.118751
Zn9   Zn    Zn3+2 0.000000 1.000000 0.450220 1.026775
Zn10  Zn    Zn3+2 0.000000 0.000000 0.549780 1.026735
Zn11  Zn    Zn3+2 0.500000 0.500000 0.950220 1.026700
Zn12  Zn    Zn3+2 0.500000 0.500000 0.049780 1.026655
Cl1   Cl    Cl    0.069383 0.468051 0.122875 -0.496162
Cl2   Cl    Cl    0.473049 0.929307 0.125220 -0.500968
Cl3   Cl    Cl    0.929415 0.527172 0.126682 -0.501652
Cl4   Cl    Cl    0.535332 0.067333 0.122727 -0.491879
Cl5   Cl    Cl    0.067079 0.536161 0.877240 -0.489947
Cl6   Cl    Cl    0.472273 0.070176 0.874316 -0.501080
Cl7   Cl    Cl    0.929643 0.472283 0.874275 -0.501322
Cl8   Cl    Cl    0.534788 0.932137 0.877374 -0.491321
Cl9   Cl    Cl    0.569871 0.970897 0.624585 -0.500067
Cl10  Cl    Cl    0.964556 0.432691 0.622688 -0.491678
Cl11  Cl    Cl    0.430113 0.030241 0.623213 -0.499127
Cl12  Cl    Cl    0.026811 0.570725 0.625304 -0.500069
Cl13  Cl    Cl    0.570356 0.027722 0.374293 -0.501798
Cl14  Cl    Cl    0.963613 0.566782 0.377215 -0.488872
Cl15  Cl    Cl    0.432959 0.963782 0.377252 -0.490045
Cl16  Cl    Cl    0.031523 0.431544 0.375928 -0.496162
Cl17  Cl    Cl    0.924385 0.584191 0.197568 -0.357189
Cl18  Cl    Cl    0.568583 0.093210 0.204787 -0.348519
Cl19  Cl    Cl    0.089718 0.427060 0.202682 -0.350190
Cl20  Cl    Cl    0.421618 0.916979 0.199612 -0.354341
Cl21  Cl    Cl    0.920332 0.418738 0.801056 -0.354885
Cl22  Cl    Cl    0.568548 0.906544 0.795295 -0.349677
Cl23  Cl    Cl    0.092241 0.570032 0.795185 -0.349313
Cl24  Cl    Cl    0.418698 0.079547 0.801183 -0.355242
Cl25  Cl    Cl    0.412301 0.075750 0.702522 -0.348284
Cl26  Cl    Cl    0.078537 0.582785 0.699521 -0.355025
Cl27  Cl    Cl    0.584585 0.922715 0.700837 -0.351920
Cl28  Cl    Cl    0.931589 0.406623 0.704815 -0.348613
Cl29  Cl    Cl    0.407633 0.930124 0.295143 -0.349167
Cl30  Cl    Cl    0.076101 0.413878 0.298080 -0.350995
Cl31  Cl    Cl    0.579730 0.081195 0.301050 -0.354736
Cl32  Cl    Cl    0.931835 0.593641 0.294915 -0.349272
Cl33  Cl    Cl    0.039456 0.303050 0.579151 -0.508869
Cl34  Cl    Cl    0.303017 0.959828 0.578635 -0.508400
Cl35  Cl    Cl    0.953832 0.696981 0.574570 -0.509848
Cl36  Cl    Cl    0.696975 0.038624 0.579723 -0.507764
Cl37  Cl    Cl    0.046222 0.697082 0.425687 -0.511630
Cl38  Cl    Cl    0.303027 0.040200 0.421381 -0.509877
Cl39  Cl    Cl    0.960546 0.303013 0.420864 -0.508912
Cl40  Cl    Cl    0.696958 0.961367 0.420268 -0.507714
Cl41  Cl    Cl    0.543559 0.803029 0.076328 -0.509296
Cl42  Cl    Cl    0.802994 0.460507 0.079058 -0.508644
Cl43  Cl    Cl    0.460901 0.196952 0.079450 -0.508645
Cl44  Cl    Cl    0.196984 0.540570 0.078370 -0.509077
Cl45  Cl    Cl    0.539134 0.196982 0.920680 -0.508031
Cl46  Cl    Cl    0.803055 0.539462 0.920809 -0.508225
Cl47  Cl    Cl    0.456439 0.802958 0.923748 -0.510560
Cl48  Cl    Cl    0.196979 0.459415 0.921635 -0.510097

loop_
_geom_bond_atom_site_label_1
_geom_bond_atom_site_label_2
_ccdc_geom_bond_type
C196  H28   S    
C89   O37   A    
C90   O34   A    
C94   O42   A    
C12   C91   S    
C91   O39   A    
C136  C148  A    
O4    Zn4   S    
C39   C87   S    
C107  C129  A    
C53   C69   A    
C1    C73   S    
C104  O32   A    
C105  C131  A    
C179  C195  A    
C162  Cl26  S    
C106  C132  A    
C177  C193  A    
C46   C62   A    
C112  C124  A    
C63   H39   S    
C15   C197  A    
C24   C184  A    
C30   C38   T    
O3    Zn3   S    
C24   C32   S    
C199  H31   S    
C7    O11   A    
C56   C72   A    
C71   H47   S    
C8    O16   A    
C23   C179  A    
C180  C196  A    
C21   C177  A    
O47   Zn12  S    
C14   C194  A    
C193  H25   S    
C42   C58   A    
C2    O6    A    
O37   Zn10  S    
C18   C170  A    
C183  H15   S    
C12   C192  A    
O18   Zn2   S    
C65   C77   A    
C147  C150  A    
C67   C79   A    
C4    O4    A    
C48   Cl40  S    
O34   Zn9   S    
C55   Cl47  S    
C20   C28   S    
C27   C35   T    
O48   Zn12  S    
C21   C29   S    
C60   C76   A    
C23   C31   S    
C3    O5    A    
C54   C70   A    
C138  C162  A    
C102  O26   A    
O40   Zn10  S    
O14   Zn8   S    
C69   H45   S    
C98   C127  S    
C20   C172  A    
C153  C168  A    
C90   O40   A    
C119  C141  A    
C154  C167  A    
C51   C87   A    
C102  C123  S    
C191  H23   S    
C7    C79   S    
O12   Zn8   S    
C89   O33   A    
C59   H35   S    
C96   O44   A    
C112  C134  A    
C173  C189  A    
O27   Zn7   S    
O41   Zn11  S    
C195  H27   S    
C17   C25   S    
C176  H8    S    
O32   Zn6   S    
C137  C161  A    
C40   C88   S    
C120  Cl16  S    
C47   C81   A    
O33   Zn9   S    
C170  H2    S    
C153  Cl17  S    
C41   C57   A    
O46   Zn12  S    
C5    O15   A    
C108  Cl4   S    
C200  H32   S    
C53   Cl45  S    
C9    C191  A    
C55   C71   A    
C17   C175  A    
C109  C135  A    
C43   C83   A    
C110  C136  A    
C181  C197  A    
C15   C94   S    
O10   Zn6   S    
C42   C82   A    
C186  H18   S    
C38   C86   S    
C163  Cl27  S    
C3    O3    A    
C190  H22   S    
C118  Cl14  S    
C1    O1    A    
C130  C146  A    
C56   C88   A    
C94   O48   A    
C178  H10   S    
C57   C73   A    
C180  H12   S    
C159  Cl23  S    
C105  Cl1   S    
C46   C82   A    
C47   Cl39  S    
C97   O19   A    
C115  C137  A    
C10   C89   S    
C98   O20   A    
C184  C200  A    
C24   C180  A    
C113  C139  A    
O19   Zn3   S    
C46   Cl38  S    
C114  C140  A    
O5    Zn1   S    
C14   C93   S    
C108  C130  A    
C16   C200  A    
C43   C59   A    
C43   Cl35  S    
C45   C83   A    
C97   C128  S    
C9    C92   S    
C52   Cl44  S    
C99   C126  S    
C101  C124  S    
C64   H40   S    
C13   C96   S    
C52   C88   A    
C53   C87   A    
C54   C86   A    
C109  C123  A    
O2    Zn2   S    
C44   Cl36  S    
C65   H41   S    
C92   O36   A    
C8    O12   A    
O8    Zn2   S    
C142  C166  A    
C106  C122  A    
C5    O9    A    
C93   O45   A    
C6    O14   A    
C51   C67   A    
C166  Cl30  S    
C157  C164  A    
C143  C167  A    
C156  Cl20  S    
O44   Zn11  S    
C158  C163  A    
C18   C174  A    
C134  C158  A    
C119  Cl15  S    
C69   C79   A    
C4    O8    A    
O39   Zn10  S    
O24   Zn2   S    
C71   C77   A    
C58   C74   A    
C174  H6    S    
C143  C151  A    
C13   C199  A    
C129  C145  A    
C50   Cl42  S    
C42   Cl34  S    
C197  H29   S    
C140  C164  A    
C135  C147  A    
C44   C84   A    
C139  C163  A    
C144  C152  A    
C129  C153  A    
C20   C176  A    
C98   O18   A    
O20   Zn4   S    
C99   O23   A    
C10   C186  A    
C131  C145  A    
C133  C157  A    
C145  C152  A    
O6    Zn4   S    
C146  C151  A    
C136  C160  A    
C104  O30   A    
C181  H13   S    
C34   C82   S    
C25   C33   T    
C119  C127  A    
C160  Cl24  S    
C68   C80   A    
C59   C75   A    
C113  Cl9   S    
O1    Zn1   S    
C18   C26   S    
C115  Cl11  S    
C116  Cl12  S    
C100  O22   A    
C178  C194  A    
C161  Cl25  S    
C23   C181  A    
C47   C63   A    
C48   C64   A    
C56   Cl48  S    
O26   Zn6   S    
C142  C152  A    
C172  H4    S    
C110  C124  A    
C175  H7    S    
C182  C198  A    
C8    C80   S    
C41   Cl33  S    
C168  Cl32  S    
C15   C195  A    
C13   C193  A    
C158  Cl22  S    
C72   H48   S    
O29   Zn5   S    
C188  H20   S    
C66   C78   A    
O31   Zn7   S    
C111  C123  A    
C157  Cl21  S    
C192  H24   S    
C92   O38   A    
O45   Zn12  S    
C67   H43   S    
C54   Cl46  S    
C63   C73   A    
C184  H16   S    
C139  C149  A    
C138  C150  A    
C51   Cl43  S    
C11   C189  A    
C95   O47   A    
C55   C85   A    
C19   C173  A    
C16   C196  A    
C41   C81   A    
C170  C186  A    
C159  C162  A    
C117  C127  A    
C185  H17   S    
C70   H46   S    
O43   Zn11  S    
C107  C121  A    
C45   Cl37  S    
C100  O24   A    
C35   C83   S    
C109  Cl5   S    
C141  C165  A    
C106  Cl2   S    
O25   Zn5   S    
C58   H34   S    
C120  C128  A    
O17   Zn1   S    
C62   H38   S    
C93   O41   A    
C6    O10   A    
C132  C146  A    
C194  H26   S    
C131  C155  A    
O23   Zn3   S    
C156  C165  A    
C44   C60   A    
C114  C126  A    
C45   C61   A    
C99   O21   A    
C189  H21   S    
C171  H3    S    
C154  Cl18  S    
C96   O46   A    
C6    C78   S    
C169  H1    S    
C113  C125  A    
C28   C36   T    
C72   C80   A    
C29   C37   T    
C62   C74   A    
C173  H5    S    
C103  C122  S    
C130  C154  A    
C1    O7    A    
C112  Cl8   S    
O30   Zn8   S    
C70   C78   A    
C60   H36   S    
C103  O31   A    
C22   C178  A    
O21   Zn1   S    
C167  Cl31  S    
C187  H19   S    
C61   C75   A    
C14   C198  A    
O42   Zn11  S    
C10   C190  A    
C49   C65   A    
C144  C168  A    
C11   C187  A    
C68   H44   S    
C37   C85   S    
C117  C143  A    
C19   C171  A    
C9    C185  A    
C2    O2    A    
C175  C191  A    
C17   C169  A    
C176  C192  A    
C117  Cl13  S    
C155  C166  A    
C12   C188  A    
C179  H11   S    
C177  H9    S    
C132  C156  A    
C26   C34   T    
C7    O13   A    
C114  Cl10  S    
C19   C27   S    
C2    C74   S    
O38   Zn10  S    
C116  C126  A    
C101  O25   A    
C118  C128  A    
C116  C138  A    
C100  C125  S    
C49   C85   A    
C120  C142  A    
C148  C149  A    
C107  Cl3   S    
C111  C133  A    
C104  C121  S    
C66   H42   S    
C49   Cl41  S    
O13   Zn5   S    
C183  C199  A    
C48   C84   A    
O15   Zn7   S    
C135  C159  A    
O36   Zn9   S    
C111  Cl7   S    
C64   C76   A    
C105  C121  A    
C91   O35   A    
C50   C66   A    
C165  Cl29  S    
O28   Zn8   S    
C133  C147  A    
C22   C182  A    
C137  C149  A    
C174  C190  A    
C95   O43   A    
C5    C77   S    
C103  O29   A    
C118  C144  A    
O7    Zn3   S    
C140  C150  A    
C3    C75   S    
C141  C151  A    
O22   Zn4   S    
C164  Cl28  S    
C97   O17   A    
C21   C183  A    
C16   C95   S    
C110  Cl6   S    
C36   C84   S    
C108  C122  A    
C52   C68   A    
C57   H33   S    
C198  H30   S    
C134  C148  A    
C115  C125  A    
C171  C187  A    
C61   H37   S    
C160  C161  A    
C169  C185  A    
C22   C30   S    
C11   C90   S    
O9    Zn5   S    
C172  C188  A    
O11   Zn7   S    
C31   C39   T    
C32   C40   T    
O16   Zn6   S    
C4    C76   S    
C50   C86   A    
C155  Cl19  S    
C182  H14   S    
C101  O27   A    
C102  O28   A    
C33   C81   S    
O35   Zn9   S    
