data_mof_unit_17063.cif
_audit_creation_date              2012-12-10T18:54:29-0500
_audit_creation_method            fapswitch 2.2
_symmetry_space_group_name_H-M    P1
_symmetry_Int_Tables_number       1
_space_group_crystal_system       triclinic
_cell_length_a                    19.464899
_cell_length_b                    18.116164
_cell_length_c                    9.079583
_cell_angle_alpha                 89.938912
_cell_angle_beta                  90.203521
_cell_angle_gamma                 89.579234
_cell_volume                      3201.61857693

loop_
_atom_site_label
_atom_site_type_symbol
_atom_type_description
_atom_site_fract_x
_atom_site_fract_y
_atom_site_fract_z
_atom_type_partial_charge
C1    C     C_R   0.367245 0.500302 0.502303 0.925976
C2    C     C_R   0.632491 0.499648 0.499764 0.911182
C3    C     C_R   0.462435 0.720982 0.397327 -0.031141
C4    C     C_R   0.539516 0.279204 0.599585 -0.015777
C5    C     C_R   0.538352 0.720689 0.600786 0.132205
C6    C     C_R   0.461265 0.279131 0.400211 0.085104
C7    C     C_R   0.461356 0.798762 0.392554 -0.081583
C8    C     C_R   0.541176 0.201437 0.603954 -0.077207
C9    C     C_R   0.539721 0.798609 0.603095 -0.133952
C10   C     C_R   0.460217 0.201210 0.397959 -0.137038
C11   C     C_R   0.500547 0.838896 0.497638 -0.025752
C12   C     C_R   0.500768 0.161111 0.501303 -0.022655
C13   C     C_R   0.448789 0.961402 0.572051 -0.119954
C14   C     C_R   0.552673 0.038597 0.427175 -0.115425
C15   C     C_R   0.552664 0.960991 0.426467 -0.125998
C16   C     C_R   0.448807 0.039004 0.572792 -0.133157
C17   C     C_R   0.500812 0.078356 0.500575 0.138966
C18   C     C_R   0.500646 0.921646 0.498654 0.138080
C19   C     C_R   0.500023 0.500025 0.220348 0.852093
C20   C     C_R   0.500145 0.499978 0.779646 0.835281
C21   C     C_1   0.500131 0.500039 0.065463 -0.168604
C22   C     C_1   0.500179 0.499976 0.934519 -0.175204
C23   C     C_R   0.744135 0.440022 0.430345 0.321300
C24   C     C_R   0.253515 0.563616 0.457469 0.349361
C25   C     C_R   0.255561 0.438188 0.558205 0.341175
C26   C     C_R   0.744886 0.556256 0.566980 0.337041
C27   C     C_R   0.816275 0.442812 0.418396 0.361076
C28   C     C_R   0.181423 0.562484 0.454686 0.379294
C29   C     C_R   0.183368 0.436578 0.553114 0.376601
C30   C     C_R   0.816731 0.557483 0.559220 0.343532
C31   C     C_R   0.852299 0.499792 0.488682 -0.251720
C32   C     C_R   0.146402 0.498633 0.500943 -0.261132
C33   C     C_R   0.708161 0.498716 0.498608 -0.377326
C34   C     C_R   0.291064 0.500841 0.506071 -0.392861
C35   C     C_R   0.962567 0.490926 0.625358 -0.146531
C36   C     C_R   0.036134 0.504743 0.362632 -0.173924
C37   C     C_R   0.034055 0.490344 0.628543 -0.168238
C38   C     C_R   0.964641 0.505603 0.359598 -0.177165
C39   C     C_R   0.071044 0.497368 0.497198 0.189314
C40   C     C_R   0.927658 0.498545 0.490914 0.247795
Cu1   Cu    Cu3+1 0.500000 0.573360 0.500000 0.967886
Cu2   Cu    Cu3+1 0.500000 0.426640 0.500000 0.972518
H1    H     H_    0.934368 0.485513 0.727414 0.142181
H2    H     H_    0.064331 0.510323 0.260634 0.164622
H3    H     H_    0.060609 0.485147 0.733127 0.163096
H4    H     H_    0.938223 0.512727 0.255441 0.137145
H5    H     H_    0.432780 0.689746 0.318225 0.154075
H6    H     H_    0.570052 0.310598 0.676857 0.115912
H7    H     H_    0.568096 0.689149 0.680001 0.177093
H8    H     H_    0.430644 0.310546 0.322308 0.164349
H9    H     H_    0.408250 0.932240 0.628479 0.133344
H10   H     H_    0.593187 0.067761 0.370666 0.134352
H11   H     H_    0.593151 0.931505 0.369354 0.142663
H12   H     H_    0.408297 0.068489 0.629841 0.139428
N1    N     N_R   0.500000 0.683620 0.500000 -0.196686
N2    N     N_R   0.500000 0.316380 0.500000 -0.182751
O1    O     O_R   0.400190 0.561980 0.499980 -0.560776
O2    O     O_R   0.599810 0.438020 0.500020 -0.559582
O3    O     O_R   0.599810 0.561980 0.500020 -0.550655
O4    O     O_R   0.400190 0.438020 0.499980 -0.563807
O5    O     O_R   0.500000 0.561940 0.288400 -0.585518
O6    O     O_R   0.500000 0.438060 0.711600 -0.578057
O7    O     O_R   0.500000 0.561940 0.711600 -0.599538
O8    O     O_R   0.500000 0.438060 0.288400 -0.582199
O9    O     O_3   0.708349 0.382220 0.367502 -0.555555
C41   C     C_3   0.713132 0.320270 0.461551 -0.228684
H13   H     H_    0.678138 0.277008 0.419480 0.173888
H14   H     H_    0.696801 0.333718 0.575964 0.129535
H15   H     H_    0.765975 0.296670 0.462373 0.188105
O10   O     O_3   0.287216 0.624718 0.402344 -0.535655
C42   C     C_3   0.291222 0.678866 0.513878 -0.217114
H16   H     H_    0.315400 0.656933 0.616441 0.150102
H17   H     H_    0.240130 0.702802 0.539147 0.163843
H18   H     H_    0.323353 0.724847 0.473743 0.159707
O11   O     O_3   0.291445 0.382431 0.630430 -0.531059
C43   C     C_3   0.295338 0.318961 0.540611 -0.154569
H19   H     H_    0.341393 0.286642 0.574042 0.174009
H20   H     H_    0.300570 0.331877 0.421040 0.128274
H21   H     H_    0.250514 0.282940 0.559718 0.178934
O12   O     O_3   0.710819 0.613026 0.638557 -0.534051
C44   C     C_3   0.702120 0.592763 0.787311 -0.219652
H22   H     H_    0.670080 0.542391 0.797821 0.107784
H23   H     H_    0.674857 0.638254 0.844875 0.202411
H24   H     H_    0.752488 0.584352 0.843550 0.169444
O13   O     O_3   0.852787 0.386943 0.348877 -0.563979
C45   C     C_3   0.841240 0.390647 0.195326 -0.267686
H25   H     H_    0.839512 0.448337 0.152459 0.123769
H26   H     H_    0.793365 0.361390 0.164971 0.207029
H27   H     H_    0.884318 0.361983 0.139123 0.175097
O14   O     O_3   0.146501 0.622969 0.396357 -0.539259
C46   C     C_3   0.109235 0.660398 0.507614 -0.296540
H28   H     H_    0.112542 0.720606 0.486740 0.180333
H29   H     H_    0.128838 0.650241 0.621582 0.131314
H30   H     H_    0.054083 0.645689 0.501332 0.188547
O15   O     O_3   0.149640 0.375648 0.609380 -0.544561
C47   C     C_3   0.122587 0.333065 0.492514 -0.296139
H31   H     H_    0.117553 0.275241 0.531044 0.186668
H32   H     H_    0.156124 0.332049 0.393146 0.136104
H33   H     H_    0.070317 0.352570 0.461986 0.192531
O16   O     O_3   0.852389 0.613565 0.628049 -0.558106
C48   C     C_3   0.861182 0.671483 0.526185 -0.236595
H34   H     H_    0.890114 0.716362 0.580870 0.179609
H35   H     H_    0.810858 0.694851 0.489795 0.189924
H36   H     H_    0.891683 0.653165 0.429218 0.137614
C49   C     C_2   0.418742 0.834195 0.275527 0.355803
H37   H     H_    0.387702 0.800003 0.203583 0.071692
O17   O     O_2   0.417714 0.900858 0.256182 -0.530112
C50   C     C_2   0.585487 0.166217 0.718304 0.353336
H38   H     H_    0.617775 0.200510 0.787466 0.054079
O18   O     O_2   0.586461 0.099630 0.738707 -0.528623
C51   C     C_2   0.581813 0.836821 0.716274 0.356125
H39   H     H_    0.582890 0.896593 0.721687 0.117812
O19   O     O_2   0.616028 0.801856 0.805624 -0.541909
C52   C     C_2   0.416996 0.162808 0.287039 0.335717
H40   H     H_    0.416477 0.103040 0.280973 0.123246
O20   O     O_2   0.381173 0.197609 0.200359 -0.544660

loop_
_geom_bond_atom_site_label_1
_geom_bond_atom_site_label_2
_ccdc_geom_bond_type
C9    C51   S    
C15   C18   A    
C41   H14   S    
C11   C18   S    
C48   H34   S    
Cu1   Cu2   S    
O15   C47   S    
C43   H21   S    
Cu1   O5    S    
C4    C8    A    
Cu2   O2    S    
C52   H40   S    
C24   O10   S    
O13   C45   S    
C31   C40   S    
C7    C11   A    
C49   O17   D    
C13   C18   A    
C15   H11   S    
C35   C37   A    
C43   H20   S    
C29   C32   A    
C3    C7    A    
C30   C31   A    
C45   H26   S    
C41   H15   S    
C47   H33   S    
C30   O16   S    
C50   H38   S    
C32   C39   S    
C27   O13   S    
Cu1   N1    S    
Cu2   N2    S    
C13   H9    S    
C3    N1    A    
C14   H10   S    
C51   H39   S    
C16   C17   A    
C23   C33   A    
C47   H32   S    
C12   C17   S    
C7    C49   S    
O10   C42   S    
C23   C27   A    
C35   H1    S    
Cu2   O6    S    
C10   C52   S    
C25   C34   A    
C41   H13   S    
C48   H35   S    
C21   C22   T    
C4    N2    A    
C14   C17   A    
C5    H7    S    
C8    C50   S    
C44   H23   S    
C1    C34   S    
C44   H22   S    
C25   C29   A    
C27   C31   A    
C28   C32   A    
C43   H19   S    
Cu1   O3    S    
C1    O4    A    
Cu2   O4    S    
C46   H28   S    
C29   O15   S    
C45   H25   S    
C24   C34   A    
C25   O11   S    
O11   C43   S    
C5    C9    A    
C1    O1    A    
C46   H29   S    
C26   C33   A    
C19   O8    A    
C8    C12   A    
C47   H31   S    
C51   O19   D    
C6    H8    S    
C9    C11   A    
C10   C12   A    
C2    C33   S    
C20   C22   S    
C26   C30   A    
C48   H36   S    
C36   H2    S    
Cu1   O7    S    
C37   H3    S    
Cu2   O8    S    
C44   H24   S    
C42   H17   S    
C4    H6    S    
C19   C21   S    
C2    O3    A    
C5    N1    A    
C36   C39   A    
C24   C28   A    
C6    N2    A    
O12   C44   S    
C45   H27   S    
C26   O12   S    
C6    C10   A    
C42   H18   S    
C52   O20   D    
C2    O2    A    
C49   H37   S    
C23   O9    S    
C20   O7    A    
C36   C38   A    
C35   C40   A    
Cu1   O1    S    
C42   H16   S    
C37   C39   A    
C46   H30   S    
C38   C40   A    
O14   C46   S    
C19   O5    A    
C3    H5    S    
O16   C48   S    
C50   O18   D    
C20   O6    A    
C16   H12   S    
C38   H4    S    
O9    C41   S    
C13   C16   A    
C14   C15   A    
C28   O14   S    
