data_mof_unit_17393.cif
_audit_creation_date              2012-12-10T18:06:50-0500
_audit_creation_method            fapswitch 2.2
_symmetry_space_group_name_H-M    P1
_symmetry_Int_Tables_number       1
_space_group_crystal_system       triclinic
_cell_length_a                    12.581771
_cell_length_b                    13.10979
_cell_length_c                    15.452391
_cell_angle_alpha                 83.647154
_cell_angle_beta                  98.539776
_cell_angle_gamma                 97.00637
_cell_volume                      2490.56178749

loop_
_atom_site_label
_atom_site_type_symbol
_atom_type_description
_atom_site_fract_x
_atom_site_fract_y
_atom_site_fract_z
_atom_type_partial_charge
C1    C     C_R   0.442321 0.308347 0.508452 0.846795
C2    C     C_R   0.687898 0.567302 0.923166 0.075058
C3    C     C_R   0.574502 0.550506 0.895020 -0.003793
C4    C     C_R   0.436036 0.513809 0.335629 0.861766
C5    C     C_R   0.760079 0.557014 0.863107 0.118219
C6    C     C_R   0.718859 0.527237 0.779487 -0.304185
C7    C     C_R   0.536801 0.503503 0.817450 0.049103
C8    C     C_R   0.626079 0.940388 0.360061 -0.189513
C9    C     C_R   0.583383 0.801400 0.469338 -0.050855
C10   C     C_R   0.346936 0.161114 0.587137 -0.187350
C11   C     C_R   0.335593 0.056433 0.613900 -0.146655
C12   C     C_R   0.457485 0.571474 0.095034 0.067056
C13   C     C_R   0.389546 0.989893 0.576383 -0.171851
C14   C     C_R   0.450443 0.026865 0.506791 0.066845
C15   C     C_R   0.444839 0.129690 0.469567 0.050865
C16   C     C_R   0.556365 0.691749 0.489316 0.856494
C17   C     C_R   0.515562 0.965164 0.472293 0.082712
C18   C     C_R   0.563573 0.002528 0.395713 0.129701
C19   C     C_R   0.542369 0.098189 0.352239 -0.241394
C20   C     C_R   0.479647 0.160226 0.386184 0.083393
C21   C     C_R   0.533185 0.866444 0.511150 -0.239191
C22   C     C_R   0.634439 0.839033 0.395992 -0.188124
C23   C     C_R   0.352023 0.596620 0.061393 0.153562
C24   C     C_R   0.405706 0.198569 0.517803 -0.111977
C25   C     C_R   0.139369 0.629287 0.632792 -0.311582
C26   C     C_R   0.756319 0.376238 0.398884 -0.041270
C27   C     C_R   0.849497 0.335723 0.388361 -0.237756
C28   C     C_R   0.564619 0.488345 0.664094 0.869204
C29   C     C_R   0.948210 0.372091 0.434071 0.108312
C30   C     C_R   0.953111 0.457497 0.485615 -0.038515
C31   C     C_R   0.853987 0.489777 0.499284 0.214865
C32   C     C_R   0.049422 0.511127 0.525547 -0.014452
C33   C     C_R   0.044735 0.580435 0.589365 0.209496
C34   C     C_R   0.535904 0.580057 0.037689 0.021877
C35   C     C_R   0.945760 0.603464 0.606586 -0.301017
C36   C     C_R   0.851895 0.561876 0.559265 -0.203064
C37   C     C_R   0.150257 0.504720 0.500717 -0.069238
C38   C     C_R   0.237410 0.612093 0.610159 0.002720
C39   C     C_R   0.403554 0.535425 0.240692 -0.062261
C40   C     C_R   0.607858 0.501109 0.756007 -0.115538
C41   C     C_R   0.276454 0.599360 0.118803 -0.208348
C42   C     C_R   0.303776 0.572884 0.208536 -0.240114
C43   C     C_R   0.477380 0.527365 0.182308 0.047087
C44   C     C_3   0.880234 0.520987 0.089376 -0.771038
C45   C     C_R   0.501007 0.574967 0.948101 0.101476
C46   C     C_R   0.395392 0.599075 0.914182 -0.180908
C47   C     C_R   0.323192 0.614570 0.970565 -0.240408
C48   C     C_R   0.647205 0.597833 0.066519 -0.334581
C49   C     C_R   0.723507 0.593834 0.010084 0.217942
H1    H     H_    0.243190 0.634601 0.943179 0.145268
H2    H     H_    0.940971 0.657429 0.653883 0.148555
H3    H     H_    0.137390 0.680467 0.682897 0.138166
H4    H     H_    0.160990 0.465665 0.445759 0.131391
H5    H     H_    0.679600 0.344756 0.366183 0.149637
H6    H     H_    0.844034 0.271757 0.348561 0.159249
H7    H     H_    0.778385 0.586964 0.571344 0.211765
H8    H     H_    0.774452 0.525664 0.732622 0.172841
H9    H     H_    0.196624 0.621997 0.094389 0.145556
H10   H     H_    0.245764 0.579283 0.252367 0.170206
H11   H     H_    0.369890 0.610982 0.844216 0.143471
H12   H     H_    0.673308 0.788303 0.362812 0.152567
H13   H     H_    0.675735 0.619764 0.132017 0.156349
H14   H     H_    0.911900 0.516126 0.877279 0.186234
H15   H     H_    0.900118 0.640430 0.838106 0.173907
H16   H     H_    0.497327 0.307314 0.330884 0.219055
H17   H     H_    0.367703 0.264242 0.346498 0.169882
H18   H     H_    0.439690 0.371040 0.790675 0.185968
H19   H     H_    0.377399 0.480526 0.762191 0.207019
H20   H     H_    0.078718 0.332813 0.385861 0.176926
H21   H     H_    0.082837 0.307580 0.499124 0.195745
H22   H     H_    0.852916 0.674214 0.080047 0.220512
H23   H     H_    0.570763 0.123181 0.289580 0.151971
H24   H     H_    0.968649 0.539276 0.108059 0.233917
H25   H     H_    0.866903 0.456706 0.046430 0.252429
H26   H     H_    0.842532 0.496097 0.150031 0.225929
H27   H     H_    0.563618 0.413472 0.155448 0.196765
H28   H     H_    0.633545 0.496585 0.227548 0.195380
H29   H     H_    0.662414 0.967915 0.301288 0.135244
H30   H     H_    0.502310 0.834790 0.571047 0.132044
H31   H     H_    0.314133 0.213332 0.623348 0.152074
H32   H     H_    0.380022 0.909994 0.602083 0.126492
H33   H     H_    0.289874 0.027525 0.667237 0.140045
H34   H     H_    0.312219 0.647352 0.643734 0.124010
N1    N     N_R   0.239390 0.551900 0.544730 -0.098749
N2    N     N_R   0.759950 0.448600 0.455730 -0.127814
N3    N     N_3   0.874574 0.581292 0.884051 -0.427964
N4    N     N_3   0.438678 0.244245 0.328421 -0.455594
N5    N     N_3   0.432204 0.443927 0.809164 -0.454166
N6    N     N_3   0.034465 0.308822 0.437963 -0.463176
N7    N     N_2   0.835106 0.611571 0.043461 -0.279659
N8    N     N_3   0.558573 0.456898 0.207248 -0.464817
O1    O     O_R   0.374950 0.371210 0.521360 -0.617002
O2    O     O_R   0.542050 0.338030 0.492790 -0.602741
O3    O     O_R   0.368720 0.526070 0.390200 -0.618878
O4    O     O_R   0.535820 0.492890 0.361630 -0.610906
O5    O     O_R   0.457950 0.661970 0.507210 -0.601968
O6    O     O_R   0.625050 0.628790 0.478640 -0.636873
O7    O     O_R   0.464180 0.507110 0.638370 -0.626805
O8    O     O_R   0.631280 0.473930 0.609800 -0.622234
Zn1   Zn    Zn3+2 0.388420 0.522150 0.519080 0.926516
Zn2   Zn    Zn3+2 0.611580 0.477850 0.480920 0.926686

loop_
_geom_bond_atom_site_label_1
_geom_bond_atom_site_label_2
_ccdc_geom_bond_type
C31   N2    A    
C38   H34   S    
C27   C29   A    
C41   C42   A    
C19   C20   A    
C6    H8    S    
C49   N7    S    
C29   N6    S    
C44   N7    S    
C45   C46   A    
C12   C23   A    
H18   N5    S    
C9    C16   S    
C41   H9    S    
C12   C43   A    
C3    C7    A    
C30   C31   A    
C27   H6    S    
C9    C22   A    
C28   C40   S    
C20   N4    S    
C13   H32   S    
C18   C19   A    
H28   N8    S    
C35   C36   A    
C8    C22   A    
C7    C40   A    
C37   N1    A    
C39   C42   A    
C37   H4    S    
C13   C14   A    
C8    H29   S    
C14   C17   A    
C19   H23   S    
H20   N6    S    
C26   H5    S    
H15   N3    S    
H16   N4    S    
C47   H1    S    
C11   H33   S    
C15   C20   A    
C16   O5    A    
C23   C47   A    
N1    Zn1   S    
O2    Zn2   S    
H17   N4    S    
C10   H31   S    
C39   C43   A    
C10   C24   A    
C3    C45   A    
C8    C18   A    
C44   H26   S    
C29   C30   A    
C36   H7    S    
C2    C49   A    
C25   C38   A    
C4    O4    A    
C48   H13   S    
C7    N5    S    
C4    C39   S    
O3    Zn1   S    
C21   H30   S    
C17   C18   A    
C26   C27   A    
C34   C45   A    
C32   C37   A    
C44   H25   S    
C4    O3    A    
C5    N3    S    
C28   O8    A    
C48   C49   A    
O8    Zn2   S    
C1    O1    A    
O7    Zn1   S    
H14   N3    S    
C35   H2    S    
H19   N5    S    
C6    C40   A    
C2    C5    A    
C34   C48   A    
C12   C34   A    
N2    Zn2   S    
O1    Zn1   S    
C28   O7    A    
C46   C47   A    
C15   C24   A    
C46   H11   S    
C31   C36   A    
C42   H10   S    
C23   C41   A    
C32   C33   A    
C2    C3    A    
C25   H3    S    
C38   N1    A    
C22   H12   S    
C30   C32   A    
C11   C13   A    
C9    C21   A    
C5    C6    A    
H22   N7    S    
C26   N2    A    
O5    Zn1   S    
C33   C35   A    
C44   H24   S    
C16   O6    A    
C43   N8    S    
C10   C11   A    
H27   N8    S    
H21   N6    S    
C1    C24   S    
C1    O2    A    
C14   C15   A    
O6    Zn2   S    
O4    Zn2   S    
C25   C33   A    
C17   C21   A    
