data_mof_unit_61708.cif
_audit_creation_date              2012-12-10T16:48:02-0500
_audit_creation_method            fapswitch 2.2
_symmetry_space_group_name_H-M    P1
_symmetry_Int_Tables_number       1
_space_group_crystal_system       triclinic
_cell_length_a                    18.7138
_cell_length_b                    18.609213
_cell_length_c                    19.229828
_cell_angle_alpha                 109.732822
_cell_angle_beta                  110.080728
_cell_angle_gamma                 108.717919
_cell_volume                      5147.07937553

loop_
_atom_site_label
_atom_site_type_symbol
_atom_type_description
_atom_site_fract_x
_atom_site_fract_y
_atom_site_fract_z
_atom_type_partial_charge
C1    C     C_R   0.383911 0.879762 0.002061 0.866984
C2    C     C_R   0.616089 0.120238 0.997939 0.866992
C3    C     C_2   0.328774 0.809261 0.008356 0.261935
C4    C     C_2   0.671225 0.190738 0.991643 0.261935
C5    C     C_R   0.994732 0.119572 0.613171 0.891488
C6    C     C_R   0.005268 0.880428 0.386829 0.891490
C7    C     C_R   0.880051 0.003841 0.385237 0.799868
C8    C     C_R   0.119949 0.996160 0.614765 0.799857
C9    C     C_R   0.001958 0.622293 0.118154 0.845642
C10   C     C_R   0.998042 0.377707 0.881846 0.845641
C11   C     C_R   0.118920 0.624967 0.005938 0.911072
C12   C     C_R   0.881080 0.375033 0.994062 0.911071
C13   C     C_2   0.918066 0.240965 0.744887 0.242270
C14   C     C_2   0.081933 0.759035 0.255112 0.242270
C15   C     C_2   0.992982 0.301994 0.819904 0.229029
C16   C     C_2   0.007017 0.698005 0.180096 0.229029
C17   C     C_2   0.918776 0.168210 0.684046 0.385494
C18   C     C_2   0.081223 0.831790 0.315953 0.385493
C19   C     C_2   0.979720 0.186928 0.660653 0.171259
C20   C     C_2   0.020280 0.813072 0.339347 0.171257
C21   C     C_R   0.624478 0.004392 0.118282 0.841419
C22   C     C_R   0.375521 0.995607 0.881718 0.841417
C23   C     C_2   0.826004 0.087005 0.326853 0.340956
C24   C     C_2   0.173999 0.912996 0.673145 0.340957
C25   C     C_2   0.810075 0.012989 0.331791 0.204604
C26   C     C_2   0.189926 0.987015 0.668213 0.204608
C27   C     C_2   0.754438 0.085983 0.261645 0.461903
C28   C     C_2   0.245565 0.914018 0.738352 0.461906
C29   C     C_2   0.705444 0.016257 0.181035 0.248238
C30   C     C_2   0.294553 0.983738 0.818964 0.248235
C31   C     C_2   0.267037 0.750940 0.081825 0.304744
C32   C     C_2   0.732964 0.249060 0.918174 0.304743
C33   C     C_2   0.181494 0.707634 0.021700 0.197636
C34   C     C_2   0.818506 0.292366 0.978300 0.197635
C35   C     C_2   0.328215 0.824661 0.081807 0.317270
C36   C     C_2   0.671785 0.175339 0.918192 0.317271
O1    O     O_R   0.409560 0.858470 0.948950 -0.630360
O2    O     O_R   0.590440 0.141530 0.051050 -0.630357
O3    O     O_R   0.948910 0.590450 0.039380 -0.630860
O4    O     O_R   0.051090 0.409550 0.960620 -0.630862
O5    O     O_R   0.141530 0.590470 0.051060 -0.561661
O6    O     O_R   0.858470 0.409530 0.948940 -0.561661
O7    O     O_R   0.039370 0.590450 0.948920 -0.578911
O8    O     O_R   0.960630 0.409550 0.051080 -0.578911
O9    O     O_R   0.409540 0.960610 0.051080 -0.554705
O10   O     O_R   0.590460 0.039390 0.948920 -0.554703
O11   O     O_R   0.590480 0.948940 0.039400 -0.637768
O12   O     O_R   0.409520 0.051060 0.960600 -0.637771
O13   O     O_R   0.590470 0.051080 0.141520 -0.546477
O14   O     O_R   0.409530 0.948920 0.858480 -0.546474
O15   O     O_R   0.051050 0.141530 0.590440 -0.586208
O16   O     O_R   0.948950 0.858470 0.409560 -0.586205
O17   O     O_R   0.948920 0.039390 0.590460 -0.557791
O18   O     O_R   0.051080 0.960610 0.409540 -0.557790
O19   O     O_R   0.960590 0.051060 0.409530 -0.594422
O20   O     O_R   0.039410 0.948940 0.590470 -0.594421
O21   O     O_R   0.858460 0.948920 0.409550 -0.614001
O22   O     O_R   0.141540 0.051080 0.590450 -0.613998
O23   O     O_R   0.051060 0.590470 0.141520 -0.560468
O24   O     O_R   0.948940 0.409530 0.858480 -0.560467
Zn1   Zn    Zn3+2 0.500010 0.931800 0.931810 1.114984
Zn2   Zn    Zn3+2 0.499990 0.068200 0.068190 1.114981
Zn3   Zn    Zn3+2 0.068190 0.068200 0.499990 1.120664
Zn4   Zn    Zn3+2 0.931810 0.931800 0.500010 1.120664
Zn5   Zn    Zn3+2 0.068210 0.500010 0.068200 1.151445
Zn6   Zn    Zn3+2 0.931790 0.499990 0.931800 1.151446
O25   O     O_3   0.905065 0.164575 0.380943 -0.719999
H1    H     H_    0.930806 0.170458 0.438343 0.346814
O26   O     O_3   0.094942 0.835423 0.619047 -0.719999
H2    H     H_    0.069201 0.829546 0.561650 0.346812
O27   O     O_3   0.064299 0.288212 0.841048 -0.737309
H3    H     H_    0.116363 0.341844 0.893337 0.374680
O28   O     O_3   0.935700 0.711787 0.158952 -0.737307
H4    H     H_    0.883636 0.658153 0.106663 0.374680
O29   O     O_3   0.861721 0.082339 0.656186 -0.717732
H5    H     H_    0.826343 0.082877 0.684505 0.374331
O30   O     O_3   0.138277 0.917661 0.343812 -0.717732
H6    H     H_    0.173654 0.917123 0.315492 0.374331
Cl1   Cl    Cl    0.039499 0.293779 0.678700 -0.523916
Cl2   Cl    Cl    0.960503 0.706222 0.321302 -0.523912
O31   O     O_3   0.723841 0.946414 0.288863 -0.748173
H7    H     H_    0.722390 0.892881 0.289250 0.376002
O32   O     O_3   0.276157 0.053596 0.711149 -0.748171
H8    H     H_    0.277604 0.107129 0.710766 0.375999
O33   O     O_3   0.736893 0.154542 0.283636 -0.739001
H9    H     H_    0.777320 0.196919 0.345813 0.376358
O34   O     O_3   0.263117 0.845464 0.716357 -0.738999
H10   H     H_    0.222695 0.803092 0.654179 0.376358
O35   O     O_3   0.735482 0.958143 0.156956 -0.743716
H11   H     H_    0.690037 0.906895 0.099318 0.370203
O36   O     O_3   0.264507 0.041845 0.843044 -0.743717
H12   H     H_    0.309946 0.093088 0.900687 0.370206
O37   O     O_3   0.298198 0.722965 0.137794 -0.709479
H13   H     H_    0.362755 0.760497 0.173226 0.360026
O38   O     O_3   0.701802 0.277034 0.862205 -0.709479
H14   H     H_    0.637246 0.239501 0.826772 0.360027
Cl3   Cl    Cl    0.137390 0.753636 0.962606 -0.521828
Cl4   Cl    Cl    0.862610 0.246364 0.037395 -0.521827
O39   O     O_3   0.384245 0.906163 0.155299 -0.738212
H15   H     H_    0.371217 0.903910 0.200585 0.363370
O40   O     O_3   0.615756 0.093837 0.844701 -0.738211
H16   H     H_    0.628785 0.096089 0.799415 0.363370
O41   O     O_3   0.281248 0.723580 0.940160 -0.748176
H17   H     H_    0.280811 0.723828 0.888577 0.377707
O42   O     O_3   0.718750 0.276420 0.059839 -0.748175
H18   H     H_    0.719187 0.276172 0.111423 0.377708
Cl5   Cl    Cl    0.816857 0.239226 0.717719 -0.527232
Cl6   Cl    Cl    0.183143 0.760775 0.282280 -0.527233

loop_
_geom_bond_atom_site_label_1
_geom_bond_atom_site_label_2
_ccdc_geom_bond_type
C22   O12   A    
O34   H10   S    
C4    C36   D    
O37   H13   S    
C27   C29   D    
C8    C26   S    
O28   H4    S    
C14   C18   S    
C10   O24   A    
O38   H14   S    
C7    O19   A    
C13   Cl5   S    
C8    O20   A    
C21   O13   A    
O31   H7    S    
O30   H6    S    
C2    O10   A    
C26   O32   S    
C32   C36   S    
C5    O17   A    
C9    C16   S    
C24   C26   D    
C10   C15   S    
O7    Zn6   S    
O17   Zn4   S    
O18   Zn3   S    
O9    Zn2   S    
C9    O3    A    
C10   O4    A    
C23   O25   S    
C27   O33   S    
C12   O6    A    
C8    O22   A    
O32   H8    S    
O19   Zn3   S    
O20   Zn4   S    
C11   O7    A    
C23   C27   S    
C18   C20   D    
C1    O1    A    
C22   O14   A    
C14   Cl6   S    
O24   Zn6   S    
C25   O31   S    
O8    Zn5   S    
C6    O18   A    
C35   O39   S    
C29   O35   S    
C24   O26   S    
C20   Cl2   S    
O10   Zn1   S    
O25   H1    S    
O40   H16   S    
C11   C33   S    
O15   Zn3   S    
O16   Zn4   S    
O36   H12   S    
C17   C19   D    
O5    Zn5   S    
O33   H9    S    
C21   C29   S    
C16   O28   S    
C36   O40   S    
C1    C3    S    
C32   C34   D    
C2    C4    S    
O29   H5    S    
C2    O2    A    
O12   Zn2   S    
O39   H15   S    
C3    C35   D    
C28   O34   S    
C31   C33   D    
C19   Cl1   S    
O4    Zn5   S    
C13   C15   D    
O3    Zn6   S    
C14   C16   D    
C12   C34   S    
C15   O27   S    
O21   Zn4   S    
C17   O29   S    
O42   H18   S    
C3    O41   S    
O22   Zn3   S    
O13   Zn2   S    
C22   C30   S    
C24   C28   S    
C30   O36   S    
O11   Zn1   S    
O1    Zn1   S    
C5    C19   S    
C6    C20   S    
C4    O42   S    
C7    C25   S    
C13   C17   S    
C28   C30   D    
O27   H3    S    
C12   O8    A    
C31   O37   S    
O23   Zn5   S    
C1    O9    A    
C18   O30   S    
C31   C35   S    
C34   Cl4   S    
C11   O5    A    
C33   Cl3   S    
C23   C25   D    
O26   H2    S    
C21   O11   A    
C32   O38   S    
O41   H17   S    
O6    Zn6   S    
O14   Zn1   S    
C5    O15   A    
C6    O16   A    
O35   H11   S    
C9    O23   A    
C7    O21   A    
O2    Zn2   S    
