data_mof_unit_47210.cif
_audit_creation_date              2012-12-10T17:55:06-0500
_audit_creation_method            fapswitch 2.2
_symmetry_space_group_name_H-M    P1
_symmetry_Int_Tables_number       1
_space_group_crystal_system       triclinic
_cell_length_a                    8.774583
_cell_length_b                    10.805628
_cell_length_c                    9.529428
_cell_angle_alpha                 90.04166
_cell_angle_beta                  96.646443
_cell_angle_gamma                 90.971058
_cell_volume                      897.327002724

loop_
_atom_site_label
_atom_site_type_symbol
_atom_type_description
_atom_site_fract_x
_atom_site_fract_y
_atom_site_fract_z
_atom_type_partial_charge
C1    C     C_R   0.505367 0.262450 0.500520 0.815205
C2    C     C_R   0.494689 0.737551 0.499485 0.829310
C3    C     C_R   0.204837 0.502473 0.465901 0.881278
C4    C     C_R   0.795135 0.497251 0.534114 0.872352
C5    C     C_2   0.044193 0.527197 0.454529 0.102855
C6    C     C_2   0.955753 0.472409 0.545531 0.063251
C7    C     C_R   0.595779 0.062335 0.411739 -0.023780
C8    C     C_R   0.404324 0.937660 0.588258 -0.036548
C9    C     C_R   0.583017 0.933764 0.409800 -0.087039
C10   C     C_R   0.417139 0.066221 0.590246 -0.087005
C11   C     C_R   0.491190 0.871494 0.498642 -0.133519
C12   C     C_R   0.508911 0.128501 0.501364 -0.128123
C13   C     C_R   0.437750 0.402807 0.067568 0.010430
C14   C     C_R   0.562307 0.597170 0.932436 0.002832
C15   C     C_R   0.438374 0.402630 0.919053 0.064812
C16   C     C_R   0.561723 0.597334 0.080957 0.082736
Cu1   Cu    Cu3+1 0.500000 0.500020 0.640660 1.023816
Cu2   Cu    Cu3+1 0.500000 0.499980 0.359340 1.044781
H1    H     H_    0.649215 0.881242 0.342108 0.215274
H2    H     H_    0.351018 0.118725 0.658010 0.218612
H3    H     H_    0.386953 0.325047 0.117570 0.147900
H4    H     H_    0.613138 0.674915 0.882434 0.150483
H5    H     H_    0.388735 0.324431 0.858187 0.172673
H6    H     H_    0.611467 0.675492 0.141836 0.167335
N1    N     N_R   0.500040 0.500030 0.852080 -0.189949
N2    N     N_R   0.499960 0.499970 0.147920 -0.184556
O1    O     O_R   0.499990 0.319660 0.618740 -0.574768
O2    O     O_R   0.500010 0.680340 0.381260 -0.558557
O3    O     O_R   0.499990 0.319630 0.381170 -0.624169
O4    O     O_R   0.500010 0.680370 0.618830 -0.620862
O5    O     O_R   0.274840 0.500010 0.591370 -0.556939
O6    O     O_R   0.725160 0.499990 0.408630 -0.553272
O7    O     O_R   0.274830 0.499980 0.353800 -0.534213
O8    O     O_R   0.725170 0.500020 0.646200 -0.568995
S1    S     S_3+6 0.984285 0.652525 0.340956 -0.000449
O9    O     O_2   0.906846 0.601505 0.203727 -0.276473
O10   O     O_2   0.875402 0.733230 0.408501 -0.334059
O11   O     O_3   0.137674 0.738733 0.308270 -0.538949
H7    H     H_    0.095117 0.807019 0.247312 0.394516
S2    S     S_3+6 0.015834 0.346995 0.659028 0.009681
O12   O     O_2   0.125465 0.266697 0.592016 -0.301121
O13   O     O_2   0.093730 0.397661 0.796347 -0.286954
O14   O     O_3   0.863484 0.259003 0.691123 -0.520090
H8    H     H_    0.833018 0.290086 0.781460 0.377978
C17   C     C_2   0.706892 0.124400 0.326900 0.446652
H9    H     H_    0.743092 0.219717 0.347771 0.098425
O15   O     O_2   0.761824 0.068811 0.233600 -0.517145
C18   C     C_2   0.293174 0.875595 0.673054 0.448360
H10   H     H_    0.256833 0.780327 0.652048 0.097017
O16   O     O_2   0.238381 0.931129 0.766475 -0.501034

loop_
_geom_bond_atom_site_label_1
_geom_bond_atom_site_label_2
_ccdc_geom_bond_type
O14   H8    S    
C8    C18   S    
Cu2   O2    S    
C7    C9    A    
S1    O9    D    
Cu2   N2    S    
C2    O4    A    
Cu1   N1    S    
C15   H5    S    
C14   H4    S    
C1    O3    A    
Cu1   Cu2   S    
C13   H3    S    
C16   H6    S    
Cu2   O3    S    
C17   H9    S    
C3    O5    A    
Cu1   O4    S    
C9    C11   A    
C4    O6    A    
C1    C12   S    
C10   C12   A    
C8    C11   A    
C2    C11   S    
C7    C17   S    
S2    O13   D    
C18   H10   S    
S1    O10   D    
C18   O16   D    
C4    O8    A    
C13   C15   A    
C14   N1    A    
C16   N2    A    
C5    C6    D    
Cu1   O5    S    
Cu2   O7    S    
C14   C16   A    
C13   N2    A    
C15   N1    A    
C4    C6    S    
Cu2   O6    S    
Cu1   O8    S    
C3    O7    A    
Cu1   O1    S    
C5    S1    S    
C6    S2    S    
O11   H7    S    
C8    C10   A    
C17   O15   D    
C1    O1    A    
S1    O11   S    
S2    O12   D    
C2    O2    A    
C7    C12   A    
C9    H1    S    
S2    O14   S    
C10   H2    S    
C3    C5    S    
