data_mof_unit_43786.cif
_audit_creation_date              2012-12-10T17:36:48-0500
_audit_creation_method            fapswitch 2.2
_symmetry_space_group_name_H-M    P1
_symmetry_Int_Tables_number       1
_space_group_crystal_system       triclinic
_cell_length_a                    10.602106
_cell_length_b                    12.329799
_cell_length_c                    13.199678
_cell_angle_alpha                 116.728604
_cell_angle_beta                  77.464077
_cell_angle_gamma                 101.383562
_cell_volume                      1494.4934738

loop_
_atom_site_label
_atom_site_type_symbol
_atom_type_description
_atom_site_fract_x
_atom_site_fract_y
_atom_site_fract_z
_atom_type_partial_charge
C1    C     C_R   0.511840 0.854845 0.286586 0.770355
C2    C     C_3   0.013427 0.908619 0.524684 -0.133627
C3    C     C_3   0.954951 0.891867 0.420328 -0.175808
C4    C     C_3   0.877530 0.999758 0.499553 0.027173
C5    C     C_R   0.321075 0.276899 0.019881 -0.195388
C6    C     C_R   0.452816 0.228026 0.834383 -0.048821
C7    C     C_R   0.601739 0.814691 0.085931 -0.192217
C8    C     C_R   0.628896 0.735495 0.971218 -0.150645
C9    C     C_R   0.581237 0.612470 0.933121 -0.186024
C10   C     C_R   0.500531 0.566509 0.009281 0.077744
C11   C     C_R   0.460804 0.650540 0.123303 0.082046
C12   C     C_R   0.740478 0.999659 0.499654 0.778891
C13   C     C_R   0.456910 0.440139 0.975793 0.072168
C14   C     C_R   0.365009 0.401391 0.052179 0.168286
C15   C     C_R   0.315653 0.487422 0.158816 -0.245010
C16   C     C_R   0.361363 0.610266 0.193350 -0.202913
C17   C     C_R   0.502756 0.350671 0.868767 -0.256833
C18   C     C_R   0.364093 0.190504 0.910977 -0.198917
C19   C     C_R   0.520732 0.773022 0.163543 -0.102774
C20   C     C_R   0.707765 0.347160 0.329112 -0.305626
C21   C     C_R   0.323631 0.759895 0.645043 0.062653
C22   C     C_R   0.283707 0.663099 0.677770 0.110757
C23   C     C_R   0.480613 0.145105 0.713360 0.794631
C24   C     C_R   0.351613 0.559954 0.622221 -0.272267
C25   C     C_R   0.457882 0.551846 0.534812 -0.027192
C26   C     C_R   0.493784 0.653189 0.505477 0.273734
C27   C     C_R   0.529855 0.447331 0.475507 -0.021940
C28   C     C_R   0.635536 0.447171 0.388695 0.178089
C29   C     C_R   0.668948 0.546832 0.361706 -0.287191
C30   C     C_R   0.599918 0.647363 0.418789 -0.164270
C31   C     C_R   0.502326 0.342107 0.497937 0.020822
C32   C     C_R   0.675698 0.247053 0.355344 0.066402
C33   C     C_R   0.259532 0.000160 0.500151 0.775434
C34   C     C_3   0.986585 0.090700 0.474851 -0.134611
C35   C     C_3   0.066279 0.982705 0.395658 -0.170795
C36   C     C_3   0.122460 0.999625 0.499996 0.025961
C37   C     C_3   0.044993 0.107442 0.579219 -0.173803
C38   C     C_3   0.933708 0.016592 0.603868 -0.165723
Cu1   Cu    Cu3+1 0.529830 0.098270 0.475420 0.928729
Cu2   Cu    Cu3+1 0.470170 0.901730 0.524580 0.915258
H1    H     H_    0.123794 0.968885 0.310623 0.129571
H2    H     H_    0.576626 0.373726 0.809147 0.147114
H3    H     H_    0.647079 0.908301 0.114435 0.149898
H4    H     H_    0.607127 0.556638 0.843026 0.130093
H5    H     H_    0.690751 0.768894 0.911924 0.141263
H6    H     H_    0.314955 0.673145 0.274585 0.173950
H7    H     H_    0.731078 0.169575 0.309658 0.118391
H8    H     H_    0.749846 0.547370 0.295525 0.146539
H9    H     H_    0.788649 0.346493 0.262643 0.133775
H10   H     H_    0.423912 0.334061 0.562282 0.124086
H11   H     H_    0.274143 0.840981 0.685889 0.143552
H12   H     H_    0.973035 0.165324 0.454384 0.135848
H13   H     H_    0.319007 0.487158 0.649175 0.133117
H14   H     H_    0.633812 0.718719 0.391773 0.203203
H15   H     H_    0.085140 0.195534 0.644053 0.124183
H16   H     H_    0.876229 0.030333 0.688896 0.128966
H17   H     H_    0.027036 0.834030 0.545188 0.136031
H18   H     H_    0.914707 0.803750 0.355577 0.121322
H19   H     H_    0.324014 0.095603 0.885118 0.145028
H20   H     H_    0.241363 0.459675 0.216018 0.142626
H21   H     H_    0.250634 0.246862 0.077689 0.130281
N1    N     N_R   0.575030 0.246270 0.438190 -0.179581
N2    N     N_R   0.425760 0.754330 0.561190 -0.229740
O1    O     O_R   0.537510 0.972500 0.318130 -0.579232
O2    O     O_R   0.487140 0.806530 0.359650 -0.601260
O3    O     O_R   0.708330 0.082950 0.479220 -0.587087
O4    O     O_R   0.657960 0.916980 0.520740 -0.595762
O5    O     O_R   0.512860 0.193470 0.640350 -0.586599
O6    O     O_R   0.462490 0.027500 0.681870 -0.586976
O7    O     O_R   0.342040 0.083020 0.479260 -0.581536
O8    O     O_R   0.291670 0.917050 0.520780 -0.600185
C39   C     C_3   0.170180 0.664288 0.770783 -0.400880
C40   C     C_3   0.098023 0.777917 0.826608 -0.886003
H22   H     H_    0.164387 0.860926 0.870024 0.245968
H23   H     H_    0.056494 0.788272 0.761482 0.245657
H24   H     H_    0.016695 0.768254 0.892100 0.249877
H25   H     H_    0.098865 0.583137 0.733305 0.205389
H26   H     H_    0.206591 0.655162 0.839160 0.212376

loop_
_geom_bond_atom_site_label_1
_geom_bond_atom_site_label_2
_ccdc_geom_bond_type
Cu2   O8    S    
C34   C37   S    
C40   H22   S    
C23   O6    A    
C35   C36   S    
C2    H17   S    
C7    C8    A    
Cu1   O1    S    
C30   H14   S    
C11   C19   A    
C37   C38   S    
Cu2   N2    S    
C36   C37   S    
C15   C16   A    
C33   C36   S    
C34   C35   S    
Cu1   O5    S    
C6    C17   A    
C8    H5    S    
C39   H26   S    
C39   H25   S    
C17   H2    S    
C8    C9    A    
Cu2   O4    S    
C1    O2    A    
C7    H3    S    
C4    C12   S    
C9    C10   A    
C21   C22   A    
C40   H23   S    
C31   N1    A    
C22   C39   S    
C6    C18   A    
C12   O4    A    
C4    C34   S    
C1    C19   S    
Cu2   O6    S    
C29   H8    S    
C27   C31   A    
C32   H7    S    
C24   C25   A    
C16   H6    S    
Cu1   Cu2   S    
C5    C18   A    
C20   C28   A    
C25   C26   A    
C12   O3    A    
C23   O5    A    
C26   N2    A    
C29   C30   A    
C20   H9    S    
C11   C16   A    
C2    C38   S    
C3    C35   S    
C5    H21   S    
C5    C14   A    
C33   O7    A    
C4    C38   S    
C26   C30   A    
C7    C19   A    
Cu2   O2    S    
C40   H24   S    
C22   C24   A    
C31   H10   S    
C3    C4    S    
C1    O1    A    
C21   H11   S    
C20   C32   A    
C2    C36   S    
Cu1   N1    S    
C28   C29   A    
C9    H4    S    
C39   C40   S    
C10   C13   A    
C25   C27   A    
C34   H12   S    
C13   C17   A    
C2    C3    S    
C24   H13   S    
C32   N1    A    
C6    C23   S    
Cu1   O3    S    
Cu1   O7    S    
C35   H1    S    
C21   N2    A    
C10   C11   A    
C33   O8    A    
C37   H15   S    
C3    H18   S    
C18   H19   S    
C38   H16   S    
C27   C28   A    
C14   C15   A    
C13   C14   A    
C15   H20   S    
