data_mof_unit_68095.cif
_audit_creation_date              2013-03-05T15:56:12-0500
_audit_creation_method            fapswitch 2.2
_symmetry_space_group_name_H-M    P1
_symmetry_Int_Tables_number       1
_space_group_crystal_system       triclinic
_cell_length_a                    7.208967
_cell_length_b                    15.504764
_cell_length_c                    15.7711
_cell_angle_alpha                 90.005236
_cell_angle_beta                  90.000698
_cell_angle_gamma                 90.723268
_cell_volume                      1762.64794041

loop_
_atom_site_label
_atom_site_type_symbol
_atom_site_description
_atom_site_fract_x
_atom_site_fract_y
_atom_site_fract_z
_atom_type_partial_charge
O1    O     O_R   0.638140 0.833910 0.163320 -0.569409
O2    O     O_R   0.361860 0.166090 0.836680 -0.582633
O3    O     O_R   0.361860 0.166090 0.663320 -0.569898
O4    O     O_R   0.638140 0.833910 0.336680 -0.582432
O5    O     O_R   0.138140 0.666090 0.336680 -0.561264
O6    O     O_R   0.861860 0.333910 0.663320 -0.589996
O7    O     O_R   0.861860 0.333910 0.836680 -0.561271
O8    O     O_R   0.138140 0.666090 0.163320 -0.590111
O9    O     O_R   0.308390 0.844930 0.336080 -0.567726
O10   O     O_R   0.691610 0.155070 0.663920 -0.593008
O11   O     O_R   0.691610 0.155070 0.836080 -0.567880
O12   O     O_R   0.308390 0.844930 0.163920 -0.593272
O13   O     O_R   0.808390 0.655070 0.163920 -0.574938
O14   O     O_R   0.191610 0.344930 0.836080 -0.597023
O15   O     O_R   0.191610 0.344930 0.663920 -0.574885
O16   O     O_R   0.808390 0.655070 0.336080 -0.597097
C1    C     C_R   0.480413 0.870640 0.360512 0.994233
C2    C     C_R   0.523019 0.136052 0.632730 0.962919
C3    C     C_R   0.519590 0.129294 0.860446 0.993970
C4    C     C_R   0.476967 0.863953 0.132739 0.963075
C5    C     C_R   0.979365 0.630618 0.138072 0.989101
C6    C     C_R   0.023746 0.365038 0.866477 0.958139
C7    C     C_R   0.020635 0.369375 0.638064 0.989320
C8    C     C_R   0.976248 0.634972 0.366488 0.958060
O17   O     O_3   0.471620 0.691320 0.250000 -0.293834
O18   O     O_3   0.528380 0.308680 0.750000 -0.293650
O19   O     O_3   0.971620 0.808680 0.250000 -0.287116
O20   O     O_3   0.028380 0.191320 0.750000 -0.287500
V1    V     V_3+5 0.196770 0.760880 0.250000 1.181535
V2    V     V_3+5 0.803230 0.239120 0.750000 1.181496
V3    V     V_3+5 0.696770 0.739120 0.250000 1.182306
V4    V     V_3+5 0.303230 0.260880 0.750000 1.182136
C9    C     C_R   0.821531 0.545334 0.486694 0.386649
C10   C     C_R   0.156419 0.495270 0.552542 0.465169
C11   C     C_R   0.178449 0.454661 0.986682 0.386867
C12   C     C_R   0.843568 0.504733 0.052538 0.465200
C13   C     C_R   0.322316 0.950478 0.012279 0.363989
C14   C     C_R   0.654090 0.002232 0.943131 0.466234
C15   C     C_R   0.677651 0.049519 0.512283 0.364014
C16   C     C_R   0.345979 0.997720 0.443092 0.466156
C17   C     C_R   0.829248 0.473225 0.542281 0.416934
C18   C     C_R   0.153047 0.541250 0.474532 0.456871
C19   C     C_R   0.170746 0.526742 0.042304 0.416958
C20   C     C_R   0.846932 0.458762 0.974519 0.456919
C21   C     C_R   0.329979 0.021785 0.955388 0.419147
C22   C     C_R   0.652627 0.958303 0.022677 0.402886
C23   C     C_R   0.670039 0.978163 0.455444 0.419314
C24   C     C_R   0.347310 0.041714 0.522608 0.403244
C25   C     C_R   0.001580 0.444491 0.575348 -0.634116
C26   C     C_R   0.983095 0.573021 0.442477 -0.631937
C27   C     C_R   0.998417 0.555498 0.075356 -0.634120
C28   C     C_R   0.016885 0.426990 0.942461 -0.632089
C29   C     C_R   0.500603 0.052551 0.921871 -0.625108
C30   C     C_R   0.484058 0.923982 0.055235 -0.594620
C31   C     C_R   0.499426 0.947342 0.421970 -0.625885
C32   C     C_R   0.515887 0.076023 0.555217 -0.594912
O21   O     O_3   0.656923 0.590055 0.481566 -0.554298
C33   C     C_3   0.688184 0.675877 0.510112 0.365582
H1    H     H_    0.672787 0.720309 0.455826 0.149924
H2    H     H_    0.828689 0.687721 0.535745 0.000405
C34   C     C_3   0.555377 0.700247 0.580793 -0.340851
H3    H     H_    0.500107 0.641929 0.612298 0.266380
H4    H     H_    0.627868 0.739349 0.629669 0.167404
C35   C     C_3   0.402447 0.755465 0.546583 -1.038608
H5    H     H_    0.459464 0.814444 0.518027 0.236681
H6    H     H_    0.315952 0.777971 0.599321 0.251770
H7    H     H_    0.321856 0.718931 0.498217 0.317564
O22   O     O_3   0.292537 0.514344 0.612104 -0.585701
C36   C     C_3   0.207659 0.552461 0.685045 0.282944
H8    H     H_    0.310517 0.561107 0.735261 0.064866
H9    H     H_    0.102282 0.509844 0.715469 0.078429
C37   C     C_3   0.133033 0.642931 0.667718 -0.405728
H10   H     H_    0.221965 0.691204 0.700605 0.209305
H11   H     H_    0.132116 0.656211 0.599305 0.233499
C38   C     C_3   0.937291 0.654303 0.698673 -1.100043
H12   H     H_    0.841721 0.611773 0.662680 0.284867
H13   H     H_    0.899525 0.722974 0.691849 0.274675
H14   H     H_    0.928741 0.637093 0.765415 0.286447
O23   O     O_3   0.343044 0.409933 0.981535 -0.554154
C39   C     C_3   0.311767 0.324131 0.010119 0.365573
H15   H     H_    0.326923 0.279662 0.955839 0.149921
H16   H     H_    0.171340 0.312338 0.035851 0.000366
C40   C     C_3   0.444764 0.299763 0.080713 -0.340936
H17   H     H_    0.499991 0.358076 0.112253 0.266431
H18   H     H_    0.372436 0.260593 0.129580 0.167439
C41   C     C_3   0.597712 0.244640 0.046372 -1.038027
H19   H     H_    0.540690 0.185658 0.017801 0.236529
H20   H     H_    0.684358 0.222141 0.099047 0.251619
H21   H     H_    0.678173 0.281233 0.998010 0.317714
O24   O     O_3   0.707487 0.485630 0.112103 -0.585717
C42   C     C_3   0.792418 0.447506 0.185022 0.283022
H22   H     H_    0.689560 0.438772 0.235222 0.064762
H23   H     H_    0.897676 0.490164 0.215485 0.078485
C43   C     C_3   0.867273 0.357085 0.167631 -0.405992
H24   H     H_    0.778417 0.308749 0.200442 0.209377
H25   H     H_    0.868285 0.343832 0.099211 0.233334
C44   C     C_3   0.062983 0.345783 0.198655 -1.099723
H26   H     H_    0.158537 0.388364 0.162720 0.284903
H27   H     H_    0.100886 0.277134 0.191796 0.274672
H28   H     H_    0.071379 0.362960 0.265413 0.286422
O25   O     O_3   0.152270 0.912279 0.028261 -0.578650
C45   C     C_3   0.151071 0.827106 0.996119 0.286257
H29   H     H_    0.139540 0.781801 0.049906 0.142226
H30   H     H_    0.275737 0.810269 0.957963 0.047602
C46   C     C_3   0.982079 0.813444 0.941165 -0.194478
H31   H     H_    0.857916 0.826949 0.979667 0.233301
H32   H     H_    0.992247 0.857068 0.885760 0.237491
C47   C     C_3   0.966898 0.721395 0.909851 -1.265527
H33   H     H_    0.085675 0.706636 0.867799 0.298557
H34   H     H_    0.834877 0.712180 0.875864 0.293406
H35   H     H_    0.963036 0.676307 0.963593 0.272333
O26   O     O_3   0.783439 0.981252 0.881318 -0.605158
C48   C     C_3   0.690205 0.944885 0.808830 0.267752
H36   H     H_    0.787063 0.941040 0.755465 0.072544
H37   H     H_    0.579749 0.986493 0.782993 0.077170
C49   C     C_3   0.619229 0.852371 0.824209 -0.409785
H38   H     H_    0.712932 0.806804 0.791913 0.208367
H39   H     H_    0.616381 0.838692 0.892453 0.211493
C50   C     C_3   0.424784 0.835979 0.790928 -1.060639
H40   H     H_    0.327526 0.881321 0.821094 0.281070
H41   H     H_    0.381140 0.769129 0.807190 0.269163
H42   H     H_    0.422973 0.843207 0.721286 0.270465
O27   O     O_3   0.847649 0.087783 0.528222 -0.578496
C51   C     C_3   0.848729 0.172908 0.495970 0.286255
H43   H     H_    0.859722 0.218310 0.549710 0.142097
H44   H     H_    0.724244 0.189586 0.457605 0.047579
C52   C     C_3   0.018029 0.186602 0.441220 -0.194606
H45   H     H_    0.142083 0.173254 0.479865 0.233282
H46   H     H_    0.008287 0.142869 0.385876 0.237528
C53   C     C_3   0.033024 0.278601 0.409768 -1.265746
H47   H     H_    0.914330 0.293187 0.367600 0.298809
H48   H     H_    0.165150 0.287852 0.375877 0.293498
H49   H     H_    0.036577 0.323791 0.463440 0.272395
O28   O     O_3   0.216895 0.018658 0.381142 -0.605144
C54   C     C_3   0.310545 0.054912 0.308712 0.267319
H50   H     H_    0.214405 0.058171 0.255007 0.072881
H51   H     H_    0.421957 0.013545 0.283328 0.076792
C55   C     C_3   0.380228 0.147638 0.323974 -0.409005
H52   H     H_    0.285378 0.192840 0.291866 0.208501
H53   H     H_    0.383540 0.161290 0.392237 0.211414
C56   C     C_3   0.574155 0.164697 0.290291 -1.060652
H54   H     H_    0.672626 0.119766 0.320305 0.280953
H55   H     H_    0.616783 0.231753 0.306388 0.269040
H56   H     H_    0.575373 0.157320 0.220647 0.270539
O29   O     O_3   0.665762 0.432887 0.564778 -0.545499
C57   C     C_3   0.618708 0.377867 0.496902 0.325501
H57   H     H_    0.732883 0.334395 0.482593 0.047781
H58   H     H_    0.589052 0.414818 0.438510 0.105141
C58   C     C_3   0.455867 0.321555 0.520901 -0.823236
H59   H     H_    0.327318 0.358163 0.516912 0.245804
H60   H     H_    0.444454 0.266544 0.477170 0.161073
H61   H     H_    0.476300 0.297657 0.585913 0.286606
O30   O     O_3   0.308579 0.542364 0.423975 -0.534598
C59   C     C_3   0.277511 0.481335 0.358134 0.178475
H62   H     H_    0.129941 0.474540 0.338622 0.061534
H63   H     H_    0.322752 0.416896 0.378276 0.091902
C60   C     C_3   0.381688 0.507361 0.279402 -0.672965
H64   H     H_    0.518964 0.535112 0.296823 0.268269
H65   H     H_    0.395150 0.450385 0.237828 0.171609
H66   H     H_    0.300989 0.554744 0.243437 0.278022
O31   O     O_3   0.334249 0.567060 0.064806 -0.545503
C61   C     C_3   0.381103 0.622187 0.997001 0.325481
H67   H     H_    0.266894 0.665696 0.982886 0.047899
H68   H     H_    0.410533 0.585341 0.938509 0.104772
C62   C     C_3   0.544067 0.678421 0.020986 -0.823072
H69   H     H_    0.672520 0.641750 0.016961 0.245818
H70   H     H_    0.555563 0.733427 0.977270 0.161026
H71   H     H_    0.523732 0.702314 0.086008 0.286617
O32   O     O_3   0.691399 0.457665 0.923961 -0.534539
C63   C     C_3   0.722433 0.518730 0.858161 0.178287
H72   H     H_    0.870035 0.525645 0.838739 0.061536
H73   H     H_    0.676895 0.583127 0.878298 0.092075
C64   C     C_3   0.618545 0.492638 0.779364 -0.672942
H74   H     H_    0.481291 0.464824 0.796712 0.268380
H75   H     H_    0.605062 0.549592 0.737768 0.171644
H76   H     H_    0.699432 0.445274 0.743461 0.277890
O33   O     O_3   0.168992 0.062947 0.935965 -0.547973
C65   C     C_3   0.126736 0.113197 0.007284 0.345281
H77   H     H_    0.245832 0.153002 0.028654 0.018731
H78   H     H_    0.085526 0.072323 0.061635 0.135812
C66   C     C_3   0.973998 0.172721 0.984748 -0.879863
H79   H     H_    0.845386 0.135681 0.975487 0.273902
H80   H     H_    0.956229 0.217241 0.038094 0.177666
H81   H     H_    0.009077 0.208139 0.926146 0.269282
O34   O     O_3   0.807487 0.961600 0.073619 -0.554611
C67   C     C_3   0.774125 0.021159 0.140391 0.192995
H82   H     H_    0.626896 0.025027 0.161100 0.057294
H83   H     H_    0.814330 0.086986 0.120383 0.085341
C68   C     C_3   0.885411 0.996740 0.217658 -0.679954
H84   H     H_    0.912580 0.055004 0.256466 0.171724
H85   H     H_    0.805150 0.950985 0.257311 0.271776
H86   H     H_    0.017392 0.966669 0.197992 0.273578
O35   O     O_3   0.831047 0.937002 0.436046 -0.547991
C69   C     C_3   0.873248 0.886774 0.507375 0.345491
H87   H     H_    0.754193 0.846927 0.528680 0.018879
H88   H     H_    0.914206 0.927669 0.561754 0.135439
C70   C     C_3   0.026128 0.827294 0.484914 -0.880142
H89   H     H_    0.154687 0.864369 0.475643 0.273942
H90   H     H_    0.043922 0.782831 0.538305 0.177845
H91   H     H_    0.991165 0.791806 0.426332 0.269128
O36   O     O_3   0.192353 0.038419 0.573487 -0.554396
C71   C     C_3   0.225615 0.978970 0.640357 0.192166
H92   H     H_    0.372837 0.975040 0.661038 0.057399
H93   H     H_    0.185133 0.913129 0.620540 0.085573
C72   C     C_3   0.114554 0.003679 0.717576 -0.679709
H94   H     H_    0.088691 0.945776 0.756985 0.172215
H95   H     H_    0.194494 0.050020 0.756628 0.272756
H96   H     H_    0.981945 0.033124 0.697898 0.272799

loop_
_geom_bond_atom_site_label_1
_geom_bond_atom_site_label_2
_geom_bond_distance
_ccdc_geom_bond_type
O17   V3    1.775768 S    
C54   C55   1.535885 S    
C69   H88   1.104483 S    
O18   V4    1.775768 S    
O25   C45   1.414427 S    
O12   V1    2.040255 S    
O19   V1    1.792789 S    
O36   C71   1.423046 S    
O16   C8    1.341988 A    
C10   C18   1.422355 A    
C24   C32   1.417019 A    
C19   C27   1.424013 A    
C44   H26   1.104604 S    
O21   C33   1.420011 S    
O27   C51   1.414442 S    
C64   H74   1.108663 S    
C49   H38   1.107649 S    
O16   V3    2.053176 S    
C46   H32   1.106909 S    
O11   C3    1.353779 A    
C62   H69   1.094567 S    
C71   H93   1.103348 S    
O3    C2    1.346486 A    
O8    V1    2.047287 S    
C15   C23   1.424393 A    
C57   H57   1.093923 S    
C36   H8    1.091993 S    
C37   C38   1.505629 S    
O29   C57   1.407574 S    
C45   H30   1.115275 S    
C41   H20   1.098885 S    
C50   H42   1.104150 S    
C69   C70   1.488700 S    
C63   H72   1.111156 S    
C70   H89   1.094211 S    
C33   H2    1.103811 S    
C57   C58   1.502609 S    
O1    V3    2.055111 S    
C15   O27   1.377908 S    
C47   H33   1.109191 S    
C45   C46   1.507844 S    
O2    V4    2.055110 S    
O32   C63   1.420648 S    
C11   O23   1.384273 S    
C34   H4    1.107577 S    
C16   C24   1.427485 A    
C20   O32   1.375767 S    
C48   H36   1.095656 S    
C60   H64   1.108687 S    
C15   C32   1.413972 A    
C68   H86   1.109056 S    
C49   H39   1.097141 S    
O22   C36   1.433896 S    
O1    C4    1.346574 A    
C71   C72   1.509492 S    
C11   C19   1.422329 A    
C1    C31   1.538915 S    
C61   H68   1.106947 S    
O24   C42   1.433887 S    
C21   O33   1.366284 S    
C48   C49   1.536133 S    
C3    C29   1.539203 S    
C33   C34   1.520216 S    
O15   C7    1.356808 A    
C69   H87   1.103572 S    
C23   C31   1.415956 A    
C21   C29   1.416037 A    
C60   H65   1.105335 S    
O7    V2    2.047286 S    
C67   H83   1.103557 S    
C8    C26   1.537108 S    
C58   H60   1.099119 S    
O12   C4    1.340409 A    
C12   O24   1.387561 S    
C43   H24   1.108018 S    
C39   C40   1.520105 S    
C17   C25   1.424023 A    
O26   C48   1.437678 S    
C44   H27   1.107530 S    
C23   O35   1.366300 S    
C65   H77   1.103717 S    
C57   H58   1.106883 S    
C50   H41   1.109453 S    
O17   V1    2.267823 S    
C46   C47   1.512835 S    
C36   H9    1.109652 S    
C71   H92   1.112713 S    
O19   V3    2.243908 S    
C45   H29   1.103885 S    
C65   C66   1.488676 S    
C35   H7    1.109894 S    
C54   H50   1.095979 S    
C18   O30   1.375769 S    
O11   V2    2.040254 S    
C59   C60   1.503684 S    
C4    C30   1.536865 S    
C58   H61   1.100770 S    
C10   O22   1.387563 S    
C42   H22   1.092001 S    
C41   H19   1.094870 S    
C39   H15   1.105410 S    
C43   C44   1.505619 S    
C9    C26   1.419352 A    
C66   H79   1.094214 S    
C16   O28   1.390528 S    
C24   O36   1.375847 S    
C55   C56   1.515691 S    
C48   H37   1.108721 S    
C35   H6    1.098995 S    
C36   C37   1.533238 S    
C53   H48   1.100039 S    
C38   H12   1.104613 S    
C52   H46   1.106902 S    
C42   H23   1.109650 S    
C61   C62   1.502500 S    
O10   V2    2.040083 S    
C40   H17   1.101912 S    
O20   V4    2.243908 S    
C16   C31   1.402325 A    
C22   C30   1.416794 A    
O8    C5    1.324846 A    
O13   C5    1.356791 A    
O3    V4    2.054939 S    
C70   H90   1.096832 S    
C43   H25   1.098478 S    
C38   H13   1.107571 S    
C14   C29   1.402589 A    
C59   H62   1.111156 S    
C12   C27   1.404606 A    
C55   H53   1.097372 S    
C18   C26   1.419354 A    
C51   C52   1.507900 S    
O4    C1    1.332206 A    
C19   O31   1.373812 S    
C37   H11   1.098471 S    
O6    V2    2.047473 S    
O18   V2    2.267823 S    
C60   H66   1.100352 S    
C70   H91   1.102852 S    
C12   C20   1.422284 A    
C53   H49   1.098874 S    
C67   H82   1.112822 S    
C13   C30   1.414002 A    
C13   C21   1.424452 A    
C52   H45   1.103973 S    
O5    V1    2.047472 S    
C5    C27   1.535436 S    
C44   H28   1.087493 S    
C51   H44   1.115431 S    
C61   H67   1.093875 S    
C72   H96   1.108896 S    
O9    C1    1.353781 A    
C68   H84   1.106556 S    
C54   H51   1.108916 S    
C72   H94   1.105866 S    
C10   C25   1.404657 A    
C9    O21   1.384294 S    
C66   H81   1.102848 S    
C40   H18   1.107598 S    
O2    C3    1.332405 A    
C59   H63   1.101712 S    
O13   V3    2.053032 S    
O14   V4    2.053031 S    
C37   H10   1.108166 S    
C41   H21   1.109897 S    
O15   V4    2.053177 S    
C20   C28   1.419361 A    
C65   H78   1.104532 S    
C50   H40   1.106590 S    
C49   C50   1.515240 S    
O28   C54   1.437757 S    
C56   H56   1.104333 S    
C2    C32   1.536864 S    
C62   H71   1.100734 S    
O7    C6    1.342188 A    
C46   H31   1.103844 S    
C47   H35   1.098864 S    
C9    C17   1.422453 A    
C35   H5    1.094801 S    
O14   C6    1.341993 A    
C67   C68   1.509859 S    
C56   H55   1.109835 S    
C53   H47   1.109266 S    
C33   H1    1.105415 S    
C52   C53   1.512825 S    
O31   C61   1.407513 S    
C58   H59   1.094627 S    
C34   C35   1.504460 S    
C13   O25   1.377948 S    
O9    V1    2.040082 S    
C64   H75   1.105372 S    
O34   C67   1.423023 S    
O5    C8    1.342272 A    
C63   H73   1.101706 S    
O10   C2    1.340499 A    
O6    C7    1.324876 A    
O20   V2    1.792789 S    
C64   H76   1.100311 S    
C39   H16   1.103771 S    
C47   H34   1.100026 S    
C6    C28   1.536919 S    
C22   O34   1.375830 S    
C34   H3    1.101925 S    
C38   H14   1.087460 S    
C14   C22   1.427518 A    
O4    V3    2.054938 S    
C7    C25   1.535535 S    
C55   H52   1.107833 S    
O33   C65   1.403852 S    
O23   C39   1.419999 S    
C66   H80   1.096738 S    
C40   C41   1.504405 S    
C17   O29   1.373869 S    
C62   H70   1.099045 S    
O35   C69   1.403812 S    
C11   C28   1.419270 A    
C68   H85   1.104016 S    
O30   C59   1.420648 S    
C56   H54   1.107172 S    
C72   H95   1.103232 S    
C14   O26   1.390434 S    
C51   H43   1.103911 S    
C42   C43   1.533268 S    
C63   C64   1.503696 S    
