data_mof_unit_38497.cif
_audit_creation_date              2013-03-05T15:50:32-0500
_audit_creation_method            fapswitch 2.2
_symmetry_space_group_name_H-M    P1
_symmetry_Int_Tables_number       1
_space_group_crystal_system       triclinic
_cell_length_a                    15.051225
_cell_length_b                    15.054815
_cell_length_c                    34.810131
_cell_angle_alpha                 91.337083
_cell_angle_beta                  92.044394
_cell_angle_gamma                 60.149206
_cell_volume                      6836.73969384

loop_
_atom_site_label
_atom_site_type_symbol
_atom_site_description
_atom_site_fract_x
_atom_site_fract_y
_atom_site_fract_z
_atom_type_partial_charge
O1    O     O_R   0.324990 0.503440 0.453910 -0.395075
O2    O     O_R   0.522030 0.339050 0.458320 -0.424538
C1    C     C_R   0.610630 0.302279 0.443989 0.600641
O3    O     O_R   0.676180 0.324490 0.458320 -0.438690
O4    O     O_R   0.643570 0.521510 0.464260 -0.500104
C2    C     C_R   0.593299 0.610546 0.449568 0.548668
O5    O     O_R   0.504630 0.675350 0.460920 -0.496574
O6    O     O_R   0.339850 0.642450 0.459830 -0.513585
C3    C     C_R   0.304131 0.591255 0.442117 0.566322
O7    O     O_R   0.321120 0.501280 0.538470 -0.515191
O8    O     O_R   0.518440 0.337050 0.536710 -0.479280
C4    C     C_R   0.606105 0.299650 0.553591 0.597340
O9    O     O_R   0.672300 0.322330 0.542880 -0.432874
O10   O     O_R   0.639980 0.519500 0.542640 -0.508672
C5    C     C_R   0.587976 0.606762 0.559045 0.573513
O11   O     O_R   0.500750 0.673190 0.545480 -0.404224
O12   O     O_R   0.336260 0.640450 0.538210 -0.448395
C6    C     C_R   0.297434 0.589517 0.551664 0.553735
Cr1   Cr    Cr6+3 0.426010 0.422500 0.497000 1.197616
Cr2   Cr    Cr6+3 0.651300 0.426310 0.501970 1.138906
Cr3   Cr    Cr6+3 0.422670 0.651170 0.501050 1.162631
O13   O     O_3   0.499990 0.499990 0.500010 -0.322139
C7    C     C_R   0.741246 0.713514 0.102471 -0.041826
C8    C     C_R   0.647857 0.728222 0.116687 0.159462
C9    C     C_R   0.641920 0.713761 0.156050 0.453058
C10   C     C_R   0.727735 0.684392 0.180702 -0.036610
C11   C     C_R   0.820435 0.666387 0.166137 -0.129312
C12   C     C_R   0.827635 0.680269 0.127372 0.329421
C13   C     C_R   0.695349 0.604641 0.236289 0.519987
C14   C     C_R   0.686901 0.598260 0.275689 0.474811
C15   C     C_R   0.703526 0.662715 0.301085 0.029069
C16   C     C_R   0.730109 0.732435 0.286998 -0.064539
C17   C     C_R   0.738847 0.738592 0.247586 -0.121092
C18   C     C_R   0.720504 0.675502 0.222104 0.017525
C19   C     C_R   0.597749 0.739191 0.358924 0.175066
C20   C     C_R   0.572637 0.725701 0.395753 -0.092753
C21   C     C_R   0.725722 0.559223 0.400089 -0.097100
C22   C     C_R   0.754527 0.571592 0.363729 0.212758
C23   C     C_R   0.687468 0.659913 0.342217 0.017568
C24   C     C_R   0.632997 0.633790 0.415508 -0.059506
H1    H     H_    0.742739 0.782536 0.306454 0.184314
H2    H     H_    0.758512 0.793437 0.236862 0.150349
H3    H     H_    0.501305 0.784248 0.407650 0.200905
H4    H     H_    0.886898 0.643502 0.185079 0.192988
H5    H     H_    0.774319 0.489369 0.415812 0.198154
C25   C     C_R   0.104822 0.728209 0.084926 -0.055804
C26   C     C_R   0.165038 0.631665 0.102531 0.177954
C27   C     C_R   0.188898 0.627106 0.142508 0.180867
C28   C     C_R   0.158664 0.718867 0.163430 0.036867
C29   C     C_R   0.112174 0.812763 0.144269 0.399680
C30   C     C_R   0.085126 0.817317 0.105420 -0.115997
C31   C     C_R   0.229892 0.736261 0.227459 0.491189
C32   C     C_R   0.232059 0.731367 0.267495 -0.048579
C33   C     C_R   0.163204 0.710982 0.286501 -0.020848
C34   C     C_R   0.089495 0.697480 0.264684 0.213393
C35   C     C_R   0.089548 0.700625 0.224448 -0.125735
C36   C     C_R   0.159855 0.718898 0.205796 0.048768
C37   C     C_R   0.202581 0.593548 0.341059 -0.039827
C38   C     C_R   0.235978 0.563179 0.378794 0.409170
C39   C     C_R   0.220458 0.728721 0.392648 -0.151972
C40   C     C_R   0.184287 0.760989 0.354871 0.192921
C41   C     C_R   0.179249 0.690770 0.328364 -0.018781
C42   C     C_R   0.249168 0.629186 0.404671 -0.029361
H6    H     H_    0.041151 0.891864 0.092223 0.163875
H7    H     H_    0.289990 0.740149 0.283752 0.188026
H8    H     H_    0.034127 0.689412 0.207447 0.162193
H9    H     H_    0.199650 0.538783 0.321044 0.207315
H10   H     H_    0.227948 0.781079 0.412585 0.196832
C43   C     C_R   0.724223 0.099974 0.086733 -0.043854
C44   C     C_R   0.805005 0.091230 0.110796 -0.155746
C45   C     C_R   0.789928 0.115364 0.149626 -0.151355
C46   C     C_R   0.693546 0.149973 0.165116 -0.013142
C47   C     C_R   0.609677 0.168997 0.140624 0.415261
C48   C     C_R   0.623963 0.145411 0.101184 0.220585
C49   C     C_R   0.604793 0.248045 0.223902 0.007767
C50   C     C_R   0.595327 0.255162 0.263680 -0.008795
C51   C     C_R   0.664196 0.173609 0.287193 0.096493
C52   C     C_R   0.742373 0.084531 0.270504 -0.019812
C53   C     C_R   0.751668 0.077244 0.230703 -0.095382
C54   C     C_R   0.683104 0.159072 0.207142 0.051052
C55   C     C_R   0.740318 0.178104 0.351334 0.384878
C56   C     C_R   0.727831 0.208224 0.389870 0.373547
C57   C     C_R   0.551663 0.243722 0.385399 0.368731
C58   C     C_R   0.564380 0.214066 0.346833 0.369705
C59   C     C_R   0.657294 0.185266 0.329209 -0.106874
C60   C     C_R   0.631629 0.246527 0.406826 -0.104688
H11   H     H_    0.882079 0.057816 0.100343 0.178427
H12   H     H_    0.535648 0.325246 0.276228 0.173378
H13   H     H_    0.552095 0.312489 0.206293 0.210751
H14   H     H_    0.854861 0.102410 0.168010 0.203564
H15   H     H_    0.796062 0.020954 0.288274 0.181548
H16   H     H_    0.812007 0.007451 0.218238 0.135009
C61   C     C_R   0.691576 0.689871 0.919655 0.020748
C62   C     C_R   0.765589 0.596473 0.903603 -0.108278
C63   C     C_R   0.754813 0.571874 0.865479 -0.023520
C64   C     C_R   0.669850 0.640050 0.842901 0.100564
C65   C     C_R   0.591074 0.728259 0.859976 -0.058127
C66   C     C_R   0.601653 0.752892 0.898124 -0.113251
C67   C     C_R   0.583491 0.633605 0.780937 0.408344
C68   C     C_R   0.579092 0.633345 0.740785 0.460706
C69   C     C_R   0.660347 0.627272 0.720002 -0.008014
C70   C     C_R   0.747436 0.617531 0.739662 -0.048927
C71   C     C_R   0.752093 0.617837 0.779746 0.331347
C72   C     C_R   0.669493 0.627187 0.800743 -0.028134
C73   C     C_R   0.720211 0.545524 0.656371 0.385563
C74   C     C_R   0.704048 0.541421 0.616888 -0.114783
C75   C     C_R   0.559114 0.714134 0.618699 0.390975
C76   C     C_R   0.575214 0.719482 0.658529 0.212944
C77   C     C_R   0.653520 0.632295 0.677678 -0.019028
C78   C     C_R   0.620320 0.623178 0.597992 -0.084882
H17   H     H_    0.835341 0.545837 0.919551 0.144415
H18   H     H_    0.543180 0.825278 0.909642 0.150805
H19   H     H_    0.815677 0.502642 0.852918 0.183801
H20   H     H_    0.810457 0.612791 0.723900 0.195845
H21   H     H_    0.753529 0.471339 0.601577 0.236585
H22   H     H_    0.524962 0.782059 0.843001 0.172820
C79   C     C_R   0.071503 0.697555 0.903609 -0.039923
C80   C     C_R   0.103609 0.763342 0.889439 -0.071068
C81   C     C_R   0.138515 0.751118 0.852175 0.469409
C82   C     C_R   0.141370 0.672975 0.828647 0.098914
C83   C     C_R   0.116103 0.602909 0.843574 -0.100336
C84   C     C_R   0.081562 0.614921 0.880949 -0.119343
C85   C     C_R   0.238758 0.581406 0.770776 0.383477
C86   C     C_R   0.250739 0.576519 0.731202 -0.045789
C87   C     C_R   0.184145 0.659942 0.707954 -0.079820
C88   C     C_R   0.107186 0.749470 0.724823 -0.061518
C89   C     C_R   0.094920 0.754634 0.764402 0.413987
C90   C     C_R   0.160305 0.670246 0.787539 0.066395
C91   C     C_R   0.194358 0.730497 0.645158 -0.051877
C92   C     C_R   0.215838 0.717692 0.605891 0.202929
C93   C     C_R   0.231031 0.549045 0.608447 -0.140862
C94   C     C_R   0.208156 0.563478 0.647075 -0.120295
C95   C     C_R   0.194514 0.651977 0.666066 0.000532
C96   C     C_R   0.241469 0.622636 0.587938 0.009224
H23   H     H_    0.097975 0.826719 0.906664 0.164702
H24   H     H_    0.057200 0.563283 0.891239 0.166277
H25   H     H_    0.205158 0.503448 0.662551 0.145038
H26   H     H_    0.311795 0.507386 0.718643 0.155844
H27   H     H_    0.054642 0.814056 0.707236 0.179800
H28   H     H_    0.180117 0.800687 0.659624 0.183592
H29   H     H_    0.117769 0.542388 0.825604 0.180453
H30   H     H_    0.247677 0.476474 0.595465 0.176585
C97   C     C_R   0.673743 0.075906 0.905283 -0.012535
C98   C     C_R   0.599964 0.058861 0.886080 -0.121517
C99   C     C_R   0.571621 0.088996 0.847924 -0.135736
C100  C     C_R   0.616066 0.137030 0.828418 0.052015
C101  C     C_R   0.686858 0.159086 0.848170 0.263071
C102  C     C_R   0.713466 0.129647 0.886608 -0.083363
C103  C     C_R   0.554354 0.255836 0.772343 0.458456
C104  C     C_R   0.553905 0.270116 0.732887 -0.058012
C105  C     C_R   0.592222 0.185840 0.707611 0.000188
C106  C     C_R   0.624042 0.087768 0.721898 0.430236
C107  C     C_R   0.624872 0.073426 0.761427 -0.093465
C108  C     C_R   0.593989 0.156653 0.786921 -0.020170
C109  C     C_R   0.558938 0.174438 0.637382 -0.122824
C110  C     C_R   0.566441 0.196065 0.598951 0.122333
C111  C     C_R   0.677093 0.263985 0.620506 0.388369
C112  C     C_R   0.669250 0.241524 0.658355 0.441279
C113  C     C_R   0.607155 0.200239 0.667137 -0.049198
C114  C     C_R   0.621860 0.246570 0.590584 -0.049431
H31   H     H_    0.568643 0.016929 0.899748 0.147376
H32   H     H_    0.770865 0.142705 0.901138 0.174675
H33   H     H_    0.527629 0.346443 0.722120 0.181965
H34   H     H_    0.517577 0.071536 0.833091 0.145451
H35   H     H_    0.655596 0.996515 0.772348 0.173779
H36   H     H_    0.513959 0.139127 0.644248 0.224392
O14   O     O_R   0.834210 0.019400 0.034570 -0.510991
O15   O     O_R   0.002210 0.824620 0.031030 -0.512017
C115  C     C_R   0.046315 0.738756 0.048520 0.581010
O16   O     O_R   0.024400 0.669340 0.039790 -0.429736
O17   O     O_R   0.830490 0.694950 0.045870 -0.436694
C116  C     C_R   0.747247 0.745877 0.063701 0.616186
O18   O     O_R   0.675430 0.831160 0.051290 -0.468393
O19   O     O_R   0.698870 0.998880 0.039560 -0.457769
C117  C     C_R   0.750645 0.041514 0.050343 0.580340
O20   O     O_R   0.811290 0.006780 0.950620 -0.504419
O21   O     O_R   0.980960 0.812920 0.953200 -0.501104
C118  C     C_R   0.017599 0.722328 0.939961 0.553115
O22   O     O_R   0.001480 0.656720 0.955830 -0.506116
O23   O     O_R   0.809240 0.683250 0.968050 -0.508458
C119  C     C_R   0.717051 0.730089 0.954886 0.554071
O24   O     O_R   0.652500 0.818540 0.967340 -0.499505
O25   O     O_R   0.677620 0.987170 0.961730 -0.487393
C120  C     C_R   0.721318 0.024208 0.941938 0.559289
Cr4   Cr    Cr6+3 0.905130 0.911420 0.992650 1.066500
Cr5   Cr    Cr6+3 0.911860 0.682710 0.002320 1.120514
Cr6   Cr    Cr6+3 0.682710 0.906840 0.004710 1.140016
O26   O     O_3   0.833240 0.833660 0.999890 -0.287198
N1    N     N_R   0.559873 0.756780 0.091546 0.124560
O27   O     O_R   0.570913 0.717275 0.057194 -0.299311
O28   O     O_R   0.467800 0.816411 0.103776 -0.167048
N2    N     N_R   0.198418 0.540684 0.079345 -0.093517
O29   O     O_R   0.284675 0.457362 0.086596 -0.000000
O30   O     O_R   0.284675 0.457362 0.086596 -0.000000
N3    N     N_R   0.154143 0.864066 0.343886 0.112503
O31   O     O_R   0.192155 0.914463 0.362224 -0.221452
O32   O     O_R   0.081182 0.911750 0.318232 -0.224063
F1    F     F_    0.298533 0.753952 0.209815 -0.493184
N4    N     N_R   0.234541 0.531302 0.162523 0.106850
O33   O     O_R   0.312007 0.506054 0.186291 -0.269057
O34   O     O_R   0.192704 0.473694 0.159781 -0.206069
N5    N     N_R   0.014860 0.680388 0.282764 0.083333
O35   O     O_R   0.979558 0.626488 0.265307 -0.302126
O36   O     O_R   0.975284 0.725610 0.315097 -0.301098
F2    F     F_    0.917627 0.667651 0.114783 -0.606134
F3    F     F_    0.261643 0.466649 0.388966 -0.496959
F4    F     F_    0.083119 0.901344 0.164098 -0.574677
N6    N     N_R   0.537454 0.166228 0.076258 0.116810
O37   O     O_R   0.461063 0.158701 0.088802 -0.179288
O38   O     O_R   0.531500 0.199630 0.041578 -0.300203
F5    F     F_    0.484416 0.217608 0.326171 -0.506884
N7    N     N_R   0.849589 0.492367 0.348451 0.117921
O39   O     O_R   0.889348 0.398408 0.360238 -0.190737
O40   O     O_R   0.901960 0.515017 0.325630 -0.232457
F6    F     F_    0.831244 0.149643 0.334892 -0.498348
F7    F     F_    0.808518 0.205244 0.409777 -0.498196
F8    F     F_    0.515200 0.206155 0.155384 -0.538007
F9    F     F_    0.458910 0.275515 0.400833 -0.471048
N8    N     N_R   0.510959 0.812470 0.679339 0.141232
O41   O     O_R   0.549381 0.843279 0.707164 -0.304000
O42   O     O_R   0.414767 0.869516 0.669415 -0.159113
F10   F     F_    0.660287 0.530969 0.289126 -0.561797
F11   F     F_    0.495298 0.639844 0.722105 -0.555903
F12   F     F_    0.503648 0.640859 0.800499 -0.526824
F13   F     F_    0.834982 0.614505 0.797966 -0.618459
F14   F     F_    0.796579 0.461640 0.674252 -0.529002
F15   F     F_    0.482530 0.797106 0.600405 -0.505144
F16   F     F_    0.679536 0.541630 0.212003 -0.518274
F17   F     F_    0.303077 0.499489 0.792689 -0.553235
F18   F     F_    0.165693 0.817770 0.838554 -0.539987
F19   F     F_    0.016428 0.840186 0.779907 -0.550633
N9    N     N_R   0.212091 0.800808 0.585035 0.103795
O43   O     O_R   0.237475 0.863096 0.602128 -0.203314
O44   O     O_R   0.168485 0.823861 0.550976 -0.272258
F20   F     F_    0.552508 0.729501 0.170531 -0.480126
F21   F     F_    0.720210 0.262937 0.686739 -0.505928
F22   F     F_    0.522203 0.337619 0.796459 -0.509640
F23   F     F_    0.661287 0.005187 0.698007 -0.565824
N10   N     N_R   0.517575 0.166736 0.568980 0.113929
O45   O     O_R   0.437540 0.158858 0.576216 -0.255793
O46   O     O_R   0.560070 0.135484 0.535778 -0.261733
N11   N     N_R   0.737987 0.204202 0.829141 0.124253
O47   O     O_R   0.775383 0.172090 0.795234 -0.233958
O48   O     O_R   0.760784 0.266289 0.847923 -0.272329
F24   F     F_    0.733016 0.309856 0.613710 -0.549127
N12   N     N_R   0.527810 0.830642 0.338201 0.088066
O49   O     O_R   0.478746 0.917425 0.356529 -0.218111
O50   O     O_R   0.501346 0.825461 0.302580 -0.252232

loop_
_geom_bond_atom_site_label_1
_geom_bond_atom_site_label_2
_geom_bond_distance
_ccdc_geom_bond_type
C37   C41   1.402974 A    
O17   C116  1.272744 A    
C61   C62   1.406675 A    
C98   H31   1.083233 S    
C79   C80   1.404990 A    
C116  O18   1.270636 A    
C47   C48   1.406969 A    
C33   C34   1.416343 A    
C82   C83   1.402234 A    
C63   C64   1.402067 A    
C101  C102  1.399963 A    
C49   C50   1.393214 A    
C93   C96   1.407123 A    
C55   C56   1.394692 A    
C58   F5    1.358242 S    
C28   C36   1.474220 S    
C85   C86   1.391215 A    
C14   F10   1.358295 S    
O4    Cr2   1.923982 S    
C92   C96   1.418862 A    
C51   C52   1.400727 A    
C35   C36   1.401493 A    
C104  H33   1.083702 S    
C91   H28   1.083284 S    
O8    Cr1   1.914491 S    
C10   C11   1.394569 A    
C111  C112  1.391315 A    
N5    O36   1.301361 A    
C39   C42   1.406808 A    
C17   H2    1.083641 S    
C86   H26   1.083569 S    
N10   O45   1.301498 A    
O7    C6    1.270611 A    
C100  C101  1.416892 A    
C21   C24   1.400633 A    
O4    C2    1.274958 A    
C109  H36   1.083403 S    
C69   C77   1.474302 S    
C97   C98   1.403044 A    
O14   Cr4   2.045594 S    
C65   C66   1.395351 A    
C62   H17   1.083046 S    
O21   Cr4   1.928579 S    
C76   C77   1.414582 A    
C115  O16   1.270611 A    
C26   N2    1.439532 S    
N1    O28   1.301312 A    
C80   C81   1.390593 A    
C68   C69   1.405755 A    
C73   C77   1.402424 A    
C81   F18   1.357824 S    
C112  F21   1.358553 S    
O19   C117  1.275123 A    
C76   N8    1.440375 S    
C61   C119  1.476666 S    
C11   H4    1.083797 S    
C10   C18   1.463370 S    
O18   Cr6   2.040198 S    
C7    C116  1.466329 S    
C26   C27   1.419299 A    
C15   C23   1.465578 S    
O6    C3    1.276684 A    
C75   F15   1.358650 S    
C103  F22   1.357379 S    
C16   H1    1.083262 S    
C8    C9    1.405341 A    
C6    C96   1.476818 S    
C8    N1    1.439630 S    
C92   N9    1.437080 S    
C32   H7    1.083542 S    
C49   C54   1.401711 A    
C40   N3    1.440346 S    
O17   Cr5   1.930511 S    
N12   O49   1.301382 A    
C107  H35   1.083532 S    
C29   F4    1.357990 S    
C67   C72   1.405401 A    
C105  C106  1.403564 A    
C51   C59   1.470176 S    
N4    O33   1.301224 A    
C103  C108  1.403570 A    
Cr3   O13   1.974382 S    
C1    C60   1.480652 S    
C12   F2    1.358343 S    
C5    C78   1.480936 S    
C43   C44   1.403709 A    
C21   C22   1.398264 A    
C44   H11   1.082518 S    
N9    O44   1.301456 A    
C9    C10   1.403664 A    
C99   C100  1.402989 A    
C109  C110  1.405776 A    
C50   C51   1.404009 A    
C110  N10   1.439246 S    
C22   C23   1.415631 A    
N12   O50   1.301302 A    
C88   H27   1.083229 S    
O1    Cr1   2.030954 S    
C66   H18   1.083004 S    
N5    O35   1.301220 A    
C27   N4    1.436675 S    
C109  C113  1.399506 A    
C70   C71   1.394598 A    
C69   C70   1.399065 A    
O10   Cr2   1.920460 S    
C20   C24   1.400468 A    
Cr1   O13   1.972534 S    
O1    C3    1.271933 A    
C58   C59   1.401884 A    
O20   Cr4   2.031879 S    
N8    O41   1.301479 A    
O22   Cr5   2.047526 S    
C57   F9    1.357590 S    
C52   C53   1.393790 A    
N6    O37   1.301290 A    
Cr4   O26   1.974580 S    
C48   N6    1.439563 S    
C33   C41   1.482221 S    
C101  N11   1.438769 S    
C29   C30   1.391564 A    
C94   H25   1.083543 S    
C56   C60   1.411166 A    
C34   N5    1.438741 S    
O11   Cr3   2.029095 S    
C13   C18   1.401870 A    
O12   Cr3   1.931200 S    
C1    O3    1.272624 A    
N3    O31   1.301522 A    
C16   C17   1.392468 A    
C39   C40   1.406086 A    
C19   C20   1.396728 A    
N2    O30   1.301133 A    
C112  C113  1.400276 A    
C119  O24   1.272909 A    
C19   C23   1.416133 A    
C79   C84   1.402877 A    
C80   H23   1.083264 S    
O25   C120  1.278089 A    
C13   C14   1.391822 A    
C70   H20   1.083417 S    
O25   Cr6   1.921161 S    
O19   Cr6   1.920122 S    
N8    O42   1.301314 A    
N11   O48   1.301386 A    
C67   C68   1.396930 A    
C85   F17   1.357437 S    
C110  C114  1.420462 A    
O7    Cr1   2.049796 S    
C7    C8    1.415754 A    
C64   C65   1.403090 A    
O16   Cr5   2.031306 S    
C34   C35   1.402574 A    
C89   F19   1.358008 S    
O12   C6    1.277155 A    
C83   C84   1.392608 A    
C47   F8    1.358609 S    
C43   C48   1.417274 A    
N10   O46   1.301552 A    
C25   C26   1.414264 A    
C73   F14   1.357960 S    
C4    O9    1.272527 A    
C65   H22   1.083248 S    
C84   H24   1.083151 S    
C53   H16   1.083507 S    
C44   C45   1.388325 A    
C93   H30   1.083134 S    
O23   Cr5   1.914502 S    
C56   F7    1.358030 S    
C38   F3    1.357176 S    
C27   C28   1.413076 A    
N7    O40   1.301362 A    
C28   C29   1.399571 A    
C111  C114  1.409696 A    
C64   C72   1.475937 S    
C87   C88   1.400209 A    
C100  C108  1.473879 S    
C75   C78   1.410254 A    
C91   C95   1.401556 A    
C57   C58   1.394096 A    
C31   F1    1.357318 S    
C7    C12   1.408739 A    
C75   C76   1.406353 A    
C21   H5    1.083084 S    
C89   C90   1.406341 A    
C79   C118  1.465800 S    
C11   C12   1.386522 A    
C31   C32   1.395677 A    
O14   C117  1.272067 A    
C91   C92   1.402599 A    
C74   C78   1.403672 A    
C87   C95   1.467759 S    
N1    O27   1.301493 A    
O20   C120  1.270754 A    
C50   H12   1.083469 S    
C67   F12   1.357945 S    
O15   C115  1.279051 A    
C19   N12   1.439939 S    
O15   Cr4   1.915461 S    
O9    Cr2   2.039059 S    
N11   O47   1.301348 A    
O2    Cr1   1.931938 S    
C3    C42   1.482257 S    
C15   C16   1.399411 A    
C30   H6    1.082390 S    
O10   C5    1.279792 A    
Cr2   O13   1.974660 S    
C46   C47   1.406080 A    
C4    C114  1.480065 S    
O6    Cr3   1.912185 S    
C81   C82   1.401356 A    
C82   C90   1.464695 S    
C83   H29   1.083448 S    
C32   C33   1.407453 A    
C2    O5    1.269863 A    
C99   H34   1.083480 S    
C52   H15   1.083400 S    
C71   F13   1.357924 S    
C73   C74   1.392499 A    
C38   C42   1.407171 A    
C68   F11   1.358173 S    
C25   C115  1.482321 S    
C74   H21   1.082489 S    
C98   C99   1.395319 A    
C39   H10   1.083061 S    
C102  H32   1.083554 S    
C97   C120  1.474082 S    
O2    C1    1.278011 A    
C37   C38   1.392602 A    
Cr6   O26   1.977069 S    
C46   C54   1.472823 S    
O5    Cr3   2.049244 S    
C93   C94   1.385182 A    
N2    O29   1.301132 A    
C14   C15   1.404156 A    
C85   C90   1.401505 A    
C55   F6    1.358229 S    
C45   H14   1.083586 S    
C111  F24   1.357147 S    
C63   H19   1.083296 S    
C88   C89   1.391833 A    
C35   H8    1.083899 S    
C25   C30   1.403928 A    
N9    O43   1.301429 A    
C17   C18   1.403384 A    
C94   C95   1.396612 A    
C2    C24   1.470802 S    
O24   Cr6   2.035908 S    
C40   C41   1.415613 A    
C97   C102  1.403006 A    
C31   C36   1.398797 A    
C49   H13   1.083115 S    
C53   C54   1.405850 A    
O3    Cr2   2.039407 S    
C37   H9    1.083671 S    
C45   C46   1.398917 A    
C57   C60   1.411325 A    
C106  F23   1.357488 S    
N7    O39   1.301643 A    
C9    F20   1.358918 S    
N6    O38   1.301530 A    
O21   C118  1.271478 A    
C71   C72   1.409073 A    
N4    O34   1.301273 A    
C104  C105  1.404345 A    
C86   C87   1.404743 A    
C20   H3    1.083394 S    
C106  C107  1.396450 A    
C43   C117  1.474064 S    
C13   F16   1.358014 S    
C22   N7    1.441680 S    
C107  C108  1.404033 A    
C103  C104  1.394383 A    
Cr5   O26   1.973984 S    
C61   C66   1.405784 A    
C62   C63   1.395047 A    
C55   C59   1.402653 A    
O23   C119  1.276020 A    
C5    O11   1.271805 A    
O8    C4    1.274325 A    
C105  C113  1.472372 S    
C118  O22   1.270111 A    
N3    O32   1.301504 A    
