data_mof_unit_30941.cif
_audit_creation_date              2012-12-11T14:19:33-0500
_audit_creation_method            fapswitch 2.2
_symmetry_space_group_name_H-M    P1
_symmetry_Int_Tables_number       1
_space_group_crystal_system       triclinic
_cell_length_a                    19.415161
_cell_length_b                    7.238066
_cell_length_c                    17.751255
_cell_angle_alpha                 90.000162
_cell_angle_beta                  107.637603
_cell_angle_gamma                 89.998758
_cell_volume                      2377.28834454

loop_
_atom_site_label
_atom_site_type_symbol
_atom_type_description
_atom_site_fract_x
_atom_site_fract_y
_atom_site_fract_z
_atom_type_partial_charge
O1    O     O_R   0.414820 0.494320 0.416790 -0.537171
O2    O     O_R   0.585180 0.994320 0.583210 -0.536902
O3    O     O_R   0.560270 0.819500 0.430140 -0.544375
O4    O     O_R   0.439730 0.319500 0.569860 -0.545394
C1    C     C_R   0.581169 0.655402 0.414622 0.716887
C2    C     C_R   0.418850 0.155400 0.585406 0.709876
O5    O     O_R   0.413840 0.823740 0.407440 -0.539872
O6    O     O_R   0.586160 0.323740 0.592560 -0.540118
O7    O     O_R   0.437710 0.998590 0.560350 -0.541134
O8    O     O_R   0.562290 0.498590 0.439650 -0.540392
C3    C     C_R   0.387873 0.654525 0.384996 0.752603
C4    C     C_R   0.612661 0.154674 0.614241 0.753573
O9    O     O_3   0.508000 0.662290 0.550200 -0.381124
O10   O     O_3   0.492000 0.162290 0.449800 -0.379462
V1    V     V_3+5 0.498520 0.935380 0.490690 1.415616
V2    V     V_3+5 0.501480 0.435380 0.509310 1.413270
C5    C     C_2   0.793844 0.273719 0.774014 0.291255
C6    C     C_2   0.225607 0.768878 0.200188 0.296062
C7    C     C_2   0.819904 0.119095 0.817333 -0.326685
C8    C     C_2   0.180368 0.620001 0.182327 -0.328090
H1    H     H_    0.789042 0.992108 0.805431 0.130585
H2    H     H_    0.191338 0.500295 0.220778 0.121814
C9    C     C_2   0.722240 0.283523 0.711641 -0.160092
C10   C     C_2   0.289266 0.781698 0.272682 -0.159267
C11   C     C_2   0.680859 0.137506 0.679919 -0.349681
C12   C     C_2   0.322237 0.636607 0.315961 -0.349406
H3    H     H_    0.704222 0.420093 0.688605 0.175351
H4    H     H_    0.311964 0.918527 0.288675 0.175769
H5    H     H_    0.698517 0.998582 0.699029 0.150698
H6    H     H_    0.302706 0.497690 0.299140 0.151237
C13   C     C_R   0.326847 0.989942 0.634290 -0.214051
C14   C     C_R   0.673256 0.490010 0.365854 -0.207325
C15   C     C_R   0.369747 0.147393 0.635289 -0.079066
C16   C     C_R   0.630319 0.647417 0.364802 -0.078545
C17   C     C_R   0.364560 0.298783 0.683189 -0.217620
C18   C     C_R   0.635529 0.798833 0.316932 -0.212768
C19   C     C_R   0.317513 0.293668 0.729608 0.088698
C20   C     C_R   0.682627 0.793781 0.270578 0.089090
C21   C     C_R   0.274073 0.136290 0.727401 0.058785
C22   C     C_R   0.726086 0.636423 0.272809 0.056844
C23   C     C_R   0.278667 0.984111 0.679423 0.089886
C24   C     C_R   0.721478 0.484227 0.320772 0.089160
C25   C     C_R   0.313051 0.443378 0.778178 -0.184393
C26   C     C_R   0.687113 0.943528 0.222042 -0.182239
C27   C     C_R   0.265385 0.438256 0.823554 -0.180562
C28   C     C_R   0.734807 0.938444 0.176703 -0.188510
C29   C     C_R   0.221330 0.283293 0.821201 0.084567
C30   C     C_R   0.778857 0.783470 0.179051 0.087973
C31   C     C_R   0.225893 0.131171 0.773189 0.056683
C32   C     C_R   0.774286 0.631329 0.227046 0.057290
C33   C     C_R   0.182392 0.973893 0.770910 0.088613
C34   C     C_R   0.817781 0.474039 0.229315 0.088780
C35   C     C_R   0.186890 0.824125 0.722383 -0.180985
C36   C     C_R   0.813286 0.324276 0.277846 -0.184747
C37   C     C_R   0.234625 0.829137 0.677087 -0.190009
C38   C     C_R   0.765541 0.329277 0.323131 -0.184479
C39   C     C_R   0.173139 0.277491 0.866314 -0.185871
C40   C     C_R   0.827031 0.777650 0.133918 -0.209953
C41   C     C_R   0.130042 0.120287 0.865133 -0.071846
C42   C     C_R   0.870076 0.620370 0.135023 -0.074365
C43   C     C_R   0.135214 0.968951 0.817177 -0.206377
C44   C     C_R   0.864927 0.469056 0.183006 -0.218474
H7    H     H_    0.329969 0.872969 0.597314 0.127135
H8    H     H_    0.670124 0.373035 0.402826 0.129067
H9    H     H_    0.397531 0.420494 0.684837 0.130893
H10   H     H_    0.602534 0.920518 0.315254 0.132443
H11   H     H_    0.346251 0.564999 0.780837 0.137474
H12   H     H_    0.653903 0.065140 0.219373 0.137777
H13   H     H_    0.262783 0.556024 0.860290 0.140860
H14   H     H_    0.737420 0.056230 0.139981 0.134671
H15   H     H_    0.170142 0.394419 0.903363 0.133767
H16   H     H_    0.830029 0.894602 0.096884 0.126387
H17   H     H_    0.102130 0.847373 0.815323 0.136552
H18   H     H_    0.897986 0.347444 0.184827 0.129883
H19   H     H_    0.153662 0.702544 0.719693 0.139146
H20   H     H_    0.846514 0.202692 0.280537 0.136548
H21   H     H_    0.237249 0.711334 0.640379 0.134109
H22   H     H_    0.762912 0.211469 0.359835 0.136389
O11   O     O_R   0.937810 0.773680 0.060480 -0.544375
O12   O     O_R   0.062190 0.273680 0.939520 -0.536242
O13   O     O_R   0.086190 0.439740 0.092580 -0.534253
O14   O     O_R   0.913810 0.939740 0.907420 -0.530659
C45   C     C_R   0.113454 0.609131 0.113706 0.763021
C46   C     C_R   0.888146 0.109460 0.884258 0.758672
O15   O     O_R   0.939760 0.444210 0.069890 -0.549278
O16   O     O_R   0.060240 0.944210 0.930110 -0.538683
O17   O     O_R   0.914790 0.269640 0.916760 -0.509918
O18   O     O_R   0.085210 0.769640 0.083240 -0.509245
C47   C     C_R   0.919255 0.612512 0.085159 0.689326
C48   C     C_R   0.080779 0.112498 0.914885 0.742846
O19   O     O_3   0.992050 0.601530 0.949880 -0.357737
O20   O     O_3   0.007950 0.101530 0.050120 -0.376596
V3    V     V_3+5 0.001480 0.328340 0.009300 1.506874
V4    V     V_3+5 0.998520 0.828340 0.990700 1.521552
Br1   Br    Br    0.847128 0.502409 0.785946 -0.555028
Br2   Br    Br    0.214027 0.984112 0.133294 -0.562992

loop_
_geom_bond_atom_site_label_1
_geom_bond_atom_site_label_2
_ccdc_geom_bond_type
O4    V2    S    
O14   V4    S    
C6    Br2   S    
O1    C3    A    
C46   O17   A    
O2    C4    A    
C2    O7    A    
C29   C31   A    
C42   C47   S    
O5    C3    A    
C5    C9    S    
C6    C10   S    
C7    H1    S    
C10   C12   D    
C37   H21   S    
C18   H10   S    
C39   C41   A    
C17   H9    S    
C40   C42   A    
C38   H22   S    
C42   C44   A    
C27   C29   A    
C23   C37   A    
O16   V4    S    
C24   C38   A    
O15   V3    S    
C26   C28   A    
C31   C33   A    
C33   C43   A    
C32   C34   A    
C13   C15   A    
C5    Br1   S    
C9    H3    S    
C6    C8    D    
C22   C24   A    
C45   O18   A    
O6    V2    S    
C35   H19   S    
O13   C45   A    
C34   C36   A    
C28   C30   A    
C35   C37   A    
C11   H5    S    
C36   C38   A    
C41   C43   A    
O11   C47   A    
C27   H13   S    
C13   H7    S    
C14   H8    S    
O11   V4    S    
C21   C23   A    
O16   C48   A    
O15   C47   A    
C5    C7    D    
O5    V1    S    
C3    C12   S    
C43   H17   S    
C33   C35   A    
C41   C48   S    
C14   C16   A    
C19   C25   A    
C20   C26   A    
C29   C39   A    
O13   V3    S    
O6    C4    A    
C1    C16   S    
O1    V2    S    
C39   H15   S    
O2    V1    S    
C25   C27   A    
C36   H20   S    
O4    C2    A    
C21   C31   A    
C8    H2    S    
C12   H6    S    
O14   C46   A    
C26   H12   S    
C7    C46   S    
O3    V1    S    
C13   C23   A    
C17   C19   A    
C10   H4    S    
O3    C1    A    
O9    V2    S    
C30   C40   A    
C2    C15   S    
C4    C11   S    
C18   C20   A    
O7    V1    S    
C1    O8    A    
C19   C21   A    
O8    V2    S    
O19   V4    S    
C20   C22   A    
C40   H16   S    
C22   C32   A    
O17   V3    S    
C30   C32   A    
O20   V3    S    
C15   C17   A    
C16   C18   A    
C9    C11   D    
O12   C48   A    
C28   H14   S    
C25   H11   S    
C8    C45   S    
O18   V4    S    
C14   C24   A    
O10   V1    S    
C44   H18   S    
C34   C44   A    
O12   V3    S    
