data_mof_unit_8995.cif
_audit_creation_date              2013-03-05T15:44:16-0500
_audit_creation_method            fapswitch 2.2
_symmetry_space_group_name_H-M    P1
_symmetry_Int_Tables_number       1
_space_group_crystal_system       triclinic
_cell_length_a                    19.790651
_cell_length_b                    10.993533
_cell_length_c                    19.510452
_cell_angle_alpha                 89.685679
_cell_angle_beta                  97.033858
_cell_angle_gamma                 90.262461
_cell_volume                      4212.82979321

loop_
_atom_site_label
_atom_site_type_symbol
_atom_site_description
_atom_site_fract_x
_atom_site_fract_y
_atom_site_fract_z
_atom_type_partial_charge
O1    O     O_R   0.783230 0.287800 0.346510 -0.448359
O2    O     O_R   0.216770 0.287800 0.653490 -0.453277
O3    O     O_R   0.283230 0.787800 0.346510 -0.448396
O4    O     O_R   0.716770 0.787800 0.653490 -0.453275
O5    O     O_R   0.760130 0.037060 0.338610 -0.472902
O6    O     O_R   0.239870 0.037060 0.661390 -0.504496
O7    O     O_R   0.260130 0.537060 0.338610 -0.472944
O8    O     O_R   0.739870 0.537060 0.661390 -0.504498
C1    C     C_R   0.725919 0.949831 0.359855 0.537271
C2    C     C_R   0.275683 0.955782 0.638563 0.542463
C3    C     C_R   0.225920 0.449828 0.359854 0.537300
C4    C     C_R   0.775683 0.455782 0.638564 0.542460
O9    O     O_R   0.666620 0.921370 0.332440 -0.527931
O10   O     O_R   0.333380 0.921370 0.667560 -0.514961
O11   O     O_R   0.166620 0.421370 0.332440 -0.527698
O12   O     O_R   0.833380 0.421370 0.667560 -0.514942
O13   O     O_R   0.557170 0.082420 0.312350 -0.491239
O14   O     O_R   0.442830 0.082420 0.687650 -0.494592
O15   O     O_R   0.057170 0.582420 0.312350 -0.491014
O16   O     O_R   0.942830 0.582420 0.687650 -0.494591
C5    C     C_R   0.534720 0.180037 0.337436 0.533811
C6    C     C_R   0.463150 0.180837 0.661055 0.546922
C7    C     C_R   0.034719 0.680036 0.337435 0.533852
C8    C     C_R   0.963146 0.680837 0.661052 0.546931
O17   O     O_R   0.548310 0.285980 0.316250 -0.510216
O18   O     O_R   0.451690 0.285980 0.683750 -0.503800
O19   O     O_R   0.048310 0.785980 0.316250 -0.510310
O20   O     O_R   0.951690 0.785980 0.683750 -0.503806
O21   O     O_R   0.680520 0.375500 0.327470 -0.522242
O22   O     O_R   0.319480 0.375500 0.672530 -0.523201
O23   O     O_R   0.180520 0.875500 0.327470 -0.522247
O24   O     O_R   0.819480 0.875500 0.672530 -0.523219
C9    C     C_R   0.738909 0.360046 0.362355 0.538666
C10   C     C_R   0.260786 0.363532 0.638434 0.557274
C11   C     C_R   0.238910 0.860046 0.362355 0.538647
C12   C     C_R   0.760786 0.863533 0.638434 0.557275
O25   O     O_R   0.780350 0.286970 0.193350 -0.497349
O26   O     O_R   0.219650 0.286970 0.806650 -0.491462
O27   O     O_R   0.280350 0.786970 0.193350 -0.497343
O28   O     O_R   0.719650 0.786970 0.806650 -0.491463
O29   O     O_R   0.757460 0.036290 0.196640 -0.461549
O30   O     O_R   0.242540 0.036290 0.803360 -0.458319
O31   O     O_R   0.257460 0.536290 0.196640 -0.461551
O32   O     O_R   0.742540 0.536290 0.803360 -0.458321
C13   C     C_R   0.722123 0.951987 0.164028 0.582692
C14   C     C_R   0.277920 0.951757 0.835960 0.587085
C15   C     C_R   0.222123 0.451987 0.164028 0.582674
C16   C     C_R   0.777920 0.451757 0.835960 0.587083
O33   O     O_R   0.663740 0.920540 0.179290 -0.504121
O34   O     O_R   0.336260 0.920540 0.820710 -0.501614
O35   O     O_R   0.163740 0.420540 0.179290 -0.504152
O36   O     O_R   0.836260 0.420540 0.820710 -0.501614
O37   O     O_R   0.554500 0.081650 0.170370 -0.490100
O38   O     O_R   0.445500 0.081650 0.829630 -0.487401
O39   O     O_R   0.054500 0.581650 0.170370 -0.490128
O40   O     O_R   0.945500 0.581650 0.829630 -0.487400
C17   C     C_R   0.531478 0.179082 0.140927 0.610061
C18   C     C_R   0.468534 0.178966 0.859087 0.613507
C19   C     C_R   0.031478 0.679082 0.140927 0.610045
C20   C     C_R   0.968534 0.678967 0.859087 0.613510
O41   O     O_R   0.545430 0.285140 0.163100 -0.431533
O42   O     O_R   0.454570 0.285140 0.836900 -0.430963
O43   O     O_R   0.045430 0.785140 0.163100 -0.431538
O44   O     O_R   0.954570 0.785140 0.836900 -0.430961
O45   O     O_R   0.677850 0.374730 0.185500 -0.456769
O46   O     O_R   0.322150 0.374730 0.814500 -0.456375
O47   O     O_R   0.177850 0.874730 0.185500 -0.456771
O48   O     O_R   0.822150 0.874730 0.814500 -0.456375
C21   C     C_R   0.736964 0.362864 0.165624 0.575069
C22   C     C_R   0.263104 0.362638 0.834419 0.583127
C23   C     C_R   0.236964 0.862864 0.165624 0.575069
C24   C     C_R   0.763104 0.862638 0.834419 0.583128
Cr1   Cr    Cr6+3 0.765830 0.160660 0.268180 1.138196
Cr2   Cr    Cr6+3 0.234170 0.160660 0.731820 1.128799
Cr3   Cr    Cr6+3 0.265830 0.660660 0.268180 1.138205
Cr4   Cr    Cr6+3 0.734170 0.660660 0.731820 1.128800
Cr5   Cr    Cr6+3 0.612110 0.009150 0.248770 1.077573
Cr6   Cr    Cr6+3 0.387890 0.009150 0.751230 1.089019
Cr7   Cr    Cr6+3 0.112110 0.509150 0.248770 1.077695
Cr8   Cr    Cr6+3 0.887890 0.509150 0.751230 1.089027
Cr9   Cr    Cr6+3 0.615930 0.324050 0.248450 1.118621
Cr10  Cr    Cr6+3 0.384070 0.324050 0.751550 1.128996
Cr11  Cr    Cr6+3 0.115930 0.824050 0.248450 1.118581
Cr12  Cr    Cr6+3 0.884070 0.824050 0.751550 1.128990
O49   O     O_3   0.664630 0.164620 0.255130 -0.278186
O50   O     O_3   0.335370 0.164620 0.744870 -0.284549
O51   O     O_3   0.164630 0.664620 0.255130 -0.278202
O52   O     O_3   0.835370 0.664620 0.744870 -0.284552
C25   C     C_1   0.481427 0.175405 0.592634 0.048570
C26   C     C_1   0.510747 0.173641 0.403409 0.034932
C27   C     C_1   0.981415 0.675406 0.592629 0.048563
C28   C     C_1   0.010740 0.673638 0.403405 0.035189
C29   C     C_1   0.498755 0.173218 0.462309 0.027324
C30   C     C_1   0.490014 0.173829 0.532726 0.028437
C31   C     C_1   0.998745 0.673212 0.462304 0.027467
C32   C     C_1   0.990000 0.673827 0.532720 0.028428
C33   C     C_3   0.701306 0.480930 0.514995 -0.112201
C34   C     C_3   0.310258 0.407242 0.477385 -0.094322
C35   C     C_3   0.201308 0.980928 0.514994 -0.112221
C36   C     C_3   0.810253 0.907260 0.477386 -0.094255
C37   C     C_3   0.695270 0.353260 0.482193 -0.154307
C38   C     C_3   0.279222 0.301897 0.516031 -0.167712
C39   C     C_3   0.195272 0.853257 0.482193 -0.154290
C40   C     C_3   0.779224 0.801907 0.516031 -0.167636
H1    H     H_    0.646553 0.305642 0.465216 0.130010
H2    H     H_    0.307101 0.218518 0.534086 0.113776
H3    H     H_    0.146555 0.805639 0.465217 0.130014
H4    H     H_    0.807107 0.718531 0.534083 0.113747
H5    H     H_    0.658377 0.536435 0.529012 0.178159
H6    H     H_    0.360673 0.404395 0.458020 0.166072
H7    H     H_    0.158379 0.036433 0.529012 0.178085
H8    H     H_    0.860668 0.904424 0.458022 0.166043
C41   C     C_3   0.747783 0.392995 0.434184 0.042443
C42   C     C_3   0.254595 0.394720 0.566128 0.032327
C43   C     C_3   0.247784 0.892993 0.434183 0.042430
C44   C     C_3   0.754591 0.894721 0.566128 0.032441
C45   C     C_3   0.753544 0.519003 0.465586 -0.173679
C46   C     C_3   0.286253 0.499157 0.529153 -0.119520
C47   C     C_3   0.253546 0.019001 0.465586 -0.173689
C48   C     C_3   0.786241 0.999168 0.529155 -0.119411
C49   C     C_3   0.812223 0.471877 0.518455 -0.116699
C50   C     C_3   0.217133 0.513050 0.482711 -0.100611
C51   C     C_3   0.312225 0.971875 0.518455 -0.116719
C52   C     C_3   0.717119 0.013050 0.482713 -0.100870
C53   C     C_3   0.805978 0.345540 0.486568 0.246411
C54   C     C_3   0.187273 0.406678 0.520106 0.229563
C55   C     C_3   0.305980 0.845538 0.486567 0.246277
C56   C     C_3   0.687266 0.906668 0.520106 0.229148
C57   C     C_3   0.754379 0.305176 0.534959 -0.136720
C58   C     C_3   0.210374 0.314806 0.469484 -0.136210
C59   C     C_3   0.254382 0.805175 0.534959 -0.136725
C60   C     C_3   0.710375 0.814804 0.469483 -0.136329
C61   C     C_3   0.760122 0.431311 0.566176 0.021261
C62   C     C_3   0.241441 0.419995 0.432354 0.021357
C63   C     C_3   0.260124 0.931310 0.566176 0.021288
C64   C     C_3   0.741436 0.920002 0.432356 0.021299
H9    H     H_    0.756155 0.599442 0.431773 0.119314
H10   H     H_    0.319887 0.568795 0.556470 0.181215
H11   H     H_    0.256154 0.099441 0.431772 0.119309
H12   H     H_    0.819874 0.068806 0.556473 0.181193
H13   H     H_    0.360852 0.019928 0.535240 0.119133
H14   H     H_    0.689630 0.098066 0.466710 0.117870
H15   H     H_    0.860849 0.519930 0.535241 0.119116
H16   H     H_    0.189648 0.598071 0.466707 0.117955
H17   H     H_    0.751808 0.224184 0.568307 0.118388
H18   H     H_    0.176982 0.242699 0.444070 0.132350
H19   H     H_    0.251814 0.724179 0.568305 0.118389
H20   H     H_    0.676987 0.742695 0.444067 0.132474
C65   C     C_3   0.527054 0.272519 0.974453 0.232202
C66   C     C_3   0.473258 0.272641 0.024897 0.233497
C67   C     C_3   0.027054 0.772519 0.974453 0.232202
C68   C     C_3   0.973258 0.772641 0.024897 0.233500
C69   C     C_3   0.565970 0.172562 0.016774 0.177476
C70   C     C_3   0.433955 0.172435 0.983287 0.176551
C71   C     C_3   0.065970 0.672562 0.016774 0.177477
C72   C     C_3   0.933955 0.672435 0.983287 0.176550
C73   C     C_3   0.512344 0.172638 0.067777 -0.046023
C74   C     C_3   0.487580 0.172183 0.932281 -0.047203
C75   C     C_3   0.012344 0.672638 0.067777 -0.046018
C76   C     C_3   0.987580 0.672183 0.932281 -0.047204
C77   C     C_3   0.472511 0.071202 0.026280 -0.193785
C78   C     C_3   0.527011 0.071056 0.974523 -0.192254
C79   C     C_3   0.972511 0.571202 0.026280 -0.193786
C80   C     C_3   0.027011 0.571056 0.974523 -0.192255
H21   H     H_    0.448622 0.990679 0.048243 0.161601
H22   H     H_    0.550558 0.990401 0.953166 0.163421
H23   H     H_    0.948622 0.490679 0.048243 0.161599
H24   H     H_    0.050558 0.490401 0.953166 0.163421
C81   C     C_1   0.764161 0.425546 0.904843 0.110951
C82   C     C_1   0.236051 0.426214 0.095205 0.109890
C83   C     C_1   0.264161 0.925546 0.904843 0.110951
C84   C     C_1   0.736051 0.926214 0.095205 0.109885
C85   C     C_1   0.751799 0.411586 0.036461 0.090527
C86   C     C_1   0.248389 0.411351 0.963521 0.089829
C87   C     C_1   0.251799 0.911586 0.036461 0.090527
C88   C     C_1   0.748389 0.911351 0.963521 0.089829
C89   C     C_1   0.757549 0.416974 0.965203 0.096954
C90   C     C_1   0.242695 0.417379 0.034850 0.096586
C91   C     C_1   0.257549 0.916974 0.965203 0.096955
C92   C     C_1   0.742695 0.917379 0.034850 0.096586
C93   C     C_1   0.745781 0.399206 0.096751 0.096892
C94   C     C_1   0.254314 0.398651 0.903241 0.098263
C95   C     C_1   0.245781 0.899206 0.096751 0.096892
C96   C     C_1   0.754314 0.898652 0.903241 0.098263
S1    S     S_3+6 0.882725 0.270221 0.471846 0.042939
O53   O     O_2   0.867330 0.148713 0.438937 -0.258518
O54   O     O_2   0.919368 0.347125 0.424223 -0.245726
O55   O     O_3   0.932394 0.250479 0.547316 -0.462334
H25   H     H_    0.941810 0.333639 0.565421 0.376576
S2    S     S_3+6 0.104453 0.400330 0.546364 0.020869
O56   O     O_2   0.091250 0.276531 0.575037 -0.228748
O57   O     O_2   0.098863 0.494723 0.600666 -0.285053
O58   O     O_3   0.047229 0.426826 0.477353 -0.483440
H26   H     H_    0.060483 0.372694 0.440882 0.361395
S3    S     S_3+6 0.382727 0.770207 0.471850 0.043193
O59   O     O_2   0.367327 0.648708 0.438931 -0.258504
O60   O     O_2   0.419386 0.847108 0.424239 -0.245308
O61   O     O_3   0.432383 0.750439 0.547325 -0.462202
H27   H     H_    0.441795 0.833592 0.565443 0.376578
S4    S     S_3+6 0.604446 0.900274 0.546374 0.021056
O62   O     O_2   0.591258 0.776431 0.574998 -0.228397
O63   O     O_2   0.598872 0.994592 0.600721 -0.285083
O64   O     O_3   0.547188 0.926848 0.477400 -0.482951
H28   H     H_    0.560781 0.873537 0.440688 0.360830
N1    N     N_R   0.639410 0.171658 0.032430 0.075080
O65   O     O_R   0.667242 0.166171 0.095920 -0.356729
O66   O     O_R   0.677327 0.168288 0.982584 -0.361372
N2    N     N_R   0.360516 0.171437 0.967599 0.074524
O67   O     O_R   0.332695 0.165801 0.904133 -0.359512
O68   O     O_R   0.322543 0.168620 0.017438 -0.362418
N3    N     N_R   0.139410 0.671658 0.032430 0.075081
O69   O     O_R   0.167242 0.666171 0.095920 -0.356728
O70   O     O_R   0.177327 0.668288 0.982584 -0.361372
N4    N     N_R   0.860516 0.671437 0.967599 0.074524
O71   O     O_R   0.832695 0.665801 0.904133 -0.359512
O72   O     O_R   0.822543 0.668620 0.017438 -0.362417
S5    S     S_3+6 0.563582 0.406655 0.941602 0.089537
O73   O     O_2   0.609930 0.371307 0.889654 -0.287557
O74   O     O_2   0.508166 0.487459 0.907519 -0.215749
O75   O     O_3   0.607460 0.482571 0.007131 -0.490040
H29   H     H_    0.622055 0.559151 0.986231 0.360683
S6    S     S_3+6 0.437188 0.406719 0.056885 0.088136
O76   O     O_2   0.390682 0.371345 0.109028 -0.290772
O77   O     O_2   0.492894 0.487686 0.090488 -0.217688
O78   O     O_3   0.393572 0.482374 0.990864 -0.488978
H30   H     H_    0.379176 0.558896 0.011286 0.360279
S7    S     S_3+6 0.063582 0.906655 0.941602 0.089537
O79   O     O_2   0.109930 0.871307 0.889654 -0.287556
O80   O     O_2   0.008166 0.987459 0.907519 -0.215749
O81   O     O_3   0.107460 0.982571 0.007131 -0.490041
H31   H     H_    0.122055 0.059151 0.986231 0.360682
S8    S     S_3+6 0.937189 0.906719 0.056885 0.088132
O82   O     O_2   0.890682 0.871345 0.109028 -0.290777
O83   O     O_2   0.992894 0.987686 0.090488 -0.217695
O84   O     O_3   0.893572 0.982374 0.990864 -0.488977
H32   H     H_    0.879176 0.058896 0.011286 0.360278

loop_
_geom_bond_atom_site_label_1
_geom_bond_atom_site_label_2
_geom_bond_distance
_ccdc_geom_bond_type
C18   O42   1.262648 A    
C67   S7    1.789210 S    
O64   H28   0.991018 S    
O4    C12   1.261592 A    
O47   Cr11  1.917133 S    
C29   C30   1.405636 S    
C34   H6    1.109945 S    
C66   C73   1.531704 S    
O39   C19   1.272207 A    
O20   Cr12  2.039763 S    
O5    Cr1   1.939937 S    
C37   C41   1.542082 S    
C49   H15   1.110170 S    
C70   C77   1.537922 S    
C35   C39   1.543820 S    
C31   C32   1.405633 S    
C33   C61   1.537792 S    
C52   H14   1.107638 S    
C86   C94   1.205048 T    
O29   Cr1   1.951226 S    
O26   C22   1.268611 A    
C77   C78   1.565198 S    
S1    O53   1.499070 D    
C8    C27   1.426795 S    
O1    C9    1.253491 A    
N1    O65   1.293762 A    
S5    O75   1.678788 S    
O7    C3    1.268161 A    
C33   C37   1.543821 S    
S2    O56   1.502571 D    
C82   C90   1.205248 T    
C76   C80   1.537728 S    
O40   C20   1.273110 A    
C70   C74   1.541228 S    
C59   C63   1.515781 S    
O30   C14   1.284076 A    
C42   C54   1.518555 S    
N4    O72   1.299871 A    
C60   C64   1.527560 S    
S1    O54   1.501594 D    
C65   C66   1.535827 S    
C58   H18   1.109146 S    
C84   C92   1.205248 T    
C54   C58   1.526549 S    
O21   C9    1.278806 A    
O8    Cr4   1.951186 S    
C43   C55   1.534468 S    
C14   C83   1.431080 S    
C53   S1    1.787764 S    
C46   C50   1.553191 S    
C25   C30   1.201771 T    
O32   Cr4   1.941537 S    
S7    O79   1.501621 D    
C1    O9    1.267274 A    
O44   Cr12  2.081166 S    
C65   C69   1.524644 S    
S2    O58   1.674976 S    
C54   S2    1.777089 S    
C27   C32   1.201771 T    
C78   H22   1.110122 S    
C19   C75   1.433097 S    
C22   C94   1.433059 S    
C36   C40   1.544121 S    
C50   C62   1.540959 S    
C4    O12   1.269025 A    
C72   C79   1.537922 S    
N2    O67   1.293760 A    
O47   C23   1.284181 A    
S2    O57   1.501109 D    
O84   H32   0.990605 S    
C16   C81   1.431079 S    
O6    Cr2   1.951186 S    
O61   H27   0.990532 S    
C36   C48   1.549192 S    
O27   Cr3   2.054049 S    
O7    Cr3   1.939937 S    
O3    Cr3   2.073137 S    
C65   C74   1.532535 S    
Cr4   O52   1.988067 S    
C66   C70   1.524780 S    
C57   H17   1.104555 S    
O2    Cr2   2.063936 S    
O48   C24   1.281979 A    
C52   C56   1.529362 S    
S3    O61   1.680898 S    
Cr6   O50   1.999842 S    
O42   Cr10  2.081166 S    
C67   C68   1.535828 S    
C85   C93   1.203635 T    
O18   Cr10  2.039763 S    
C40   C44   1.538298 S    
Cr7   O51   1.992854 S    
C33   C45   1.552062 S    
C66   S6    1.789015 S    
C83   C91   1.203862 T    
C58   C62   1.527563 S    
C3    O11   1.267283 A    
O34   Cr6   2.036233 S    
C81   C89   1.203862 T    
O75   H29   0.990611 S    
C14   O34   1.276036 A    
C34   C46   1.549195 S    
O35   Cr7   2.047793 S    
C5    C26   1.426574 S    
N1    O66   1.299877 A    
O31   Cr3   1.951226 S    
O24   Cr12  1.960921 S    
O9    Cr5   2.078662 S    
C59   H19   1.104559 S    
O30   Cr2   1.941537 S    
C37   H1    1.110123 S    
O4    Cr4   2.063936 S    
O16   Cr8   1.918635 S    
C71   C75   1.541169 S    
O48   Cr12  1.924299 S    
C68   C72   1.524778 S    
C72   C76   1.541226 S    
O32   C16   1.284076 A    
C2    C63   1.434828 S    
C24   C96   1.433061 S    
C2    O10   1.269018 A    
C3    C62   1.446444 S    
O22   C10   1.272570 A    
N4    O71   1.293758 A    
S4    O62   1.502565 D    
S1    O55   1.680896 S    
C15   O35   1.273846 A    
S6    O78   1.678866 S    
S5    O73   1.501621 D    
Cr10  O50   1.993522 S    
C35   C47   1.552058 S    
O11   Cr7   2.078662 S    
C28   C31   1.201509 T    
O13   C5    1.285303 A    
O28   Cr4   2.066619 S    
C43   C47   1.515947 S    
O43   Cr11  2.082294 S    
O55   H25   0.990531 S    
O12   Cr8   2.082386 S    
Cr12  O52   1.993522 S    
O41   Cr9   2.082294 S    
C50   C54   1.529354 S    
O15   C7    1.285299 A    
O21   Cr9   1.962421 S    
C56   S4    1.777180 S    
O5    C1    1.268163 A    
C39   C43   1.542082 S    
C38   C42   1.538303 S    
C55   S3    1.787787 S    
O46   Cr10  1.924299 S    
O39   Cr7   1.960292 S    
O25   C21   1.270389 A    
S8    O84   1.678866 S    
C88   C92   1.411850 S    
O45   Cr9   1.917133 S    
N3    O69   1.293762 A    
C52   C64   1.540967 S    
C13   O33   1.273846 A    
C79   H23   1.110134 S    
O8    C4    1.259581 A    
C35   H7    1.110145 S    
C51   H13   1.110169 S    
S8    O83   1.502630 D    
O78   H30   0.990604 S    
O23   Cr11  1.962421 S    
C35   C63   1.537791 S    
O36   Cr8   2.036233 S    
C65   S5    1.789210 S    
O29   C13   1.282349 A    
Cr2   O50   1.988067 S    
S6    O77   1.502630 D    
Cr1   O49   1.988408 S    
C42   C46   1.525186 S    
C6    O18   1.271302 A    
C48   H12   1.107313 S    
C80   H24   1.110121 S    
S4    O63   1.501120 D    
O14   Cr6   1.918635 S    
S7    O80   1.502637 D    
C49   C53   1.523291 S    
C57   C61   1.515778 S    
C7    O19   1.272313 A    
C4    C61   1.434827 S    
C53   C57   1.535725 S    
C18   C74   1.433241 S    
O37   Cr5   1.960292 S    
C8    O20   1.271297 A    
O23   C11   1.278809 A    
C19   O43   1.263393 A    
O38   Cr6   1.962866 S    
S5    O74   1.502638 D    
C44   C56   1.518582 S    
O3    C11   1.253483 A    
C12   C44   1.440639 S    
C13   C84   1.433472 S    
C73   C77   1.538182 S    
C51   C55   1.523294 S    
C40   H4    1.105530 S    
C15   C82   1.433472 S    
C26   C29   1.201509 T    
C87   C95   1.203635 T    
O38   C18   1.273110 A    
C41   C45   1.515949 S    
Cr3   O51   1.988408 S    
C88   C96   1.205048 T    
C5    O17   1.272309 A    
C56   C60   1.526561 S    
O37   C17   1.272208 A    
O22   Cr10  1.960921 S    
O28   C24   1.268611 A    
N3    O70   1.299877 A    
O14   C6    1.281615 A    
C60   H20   1.109146 S    
C9    C41   1.438997 S    
C86   C90   1.411850 S    
C45   H9    1.105186 S    
C20   C76   1.433240 S    
O17   Cr9   2.034262 S    
Cr11  O51   2.000017 S    
O6    C2    1.259588 A    
C87   C91   1.409651 S    
O24   C12   1.272577 A    
C17   O41   1.263394 A    
C47   C51   1.545093 S    
C71   C80   1.538103 S    
C10   C42   1.440641 S    
O26   Cr2   2.066619 S    
C34   C62   1.534187 S    
O25   Cr1   2.054049 S    
C67   C71   1.524644 S    
O40   Cr8   1.962866 S    
C69   C78   1.538103 S    
C20   O44   1.262648 A    
O1    Cr1   2.073137 S    
C67   C76   1.532535 S    
C55   C59   1.535728 S    
C71   N3    1.448187 S    
C33   H5    1.110144 S    
C47   H11   1.105188 S    
C37   C57   1.553213 S    
Cr8   O52   1.999842 S    
N2    O68   1.299871 A    
C34   C38   1.544129 S    
C50   H16   1.107638 S    
C17   C73   1.433095 S    
O13   Cr5   1.928504 S    
O2    C10   1.261600 A    
C36   H8    1.109944 S    
O46   C22   1.281980 A    
O31   C15   1.282349 A    
C49   C61   1.534692 S    
S4    O64   1.675004 S    
O45   C21   1.284181 A    
O19   Cr11  2.034262 S    
S8    O82   1.501665 D    
C6    C25   1.426796 S    
O33   Cr5   2.047793 S    
C38   H2    1.105527 S    
C75   C79   1.538182 S    
O10   Cr6   2.082386 S    
C69   C73   1.541170 S    
O81   H31   0.990612 S    
Cr9   O49   2.000017 S    
C68   C75   1.531704 S    
C79   C80   1.565198 S    
C48   C52   1.553204 S    
C74   C78   1.537727 S    
Cr5   O49   1.992854 S    
S3    O59   1.499071 D    
C1    C64   1.446436 S    
C44   C48   1.525182 S    
C72   N4    1.448151 S    
C16   O36   1.276036 A    
S7    O81   1.678789 S    
C41   C53   1.534464 S    
C11   C43   1.438993 S    
C69   N1    1.448186 S    
O58   H26   0.990479 S    
C40   C60   1.548786 S    
C51   C63   1.534699 S    
C36   C64   1.534177 S    
O27   C23   1.270389 A    
C7    C28   1.426573 S    
C39   H3    1.110124 S    
C45   C49   1.545087 S    
C70   N2    1.448149 S    
S3    O60   1.501600 D    
C85   C89   1.409651 S    
C46   H10   1.107315 S    
C39   C59   1.553211 S    
S6    O76   1.501664 D    
O16   C8    1.281614 A    
C77   H21   1.110133 S    
O15   Cr7   1.928504 S    
C21   C93   1.430599 S    
C68   S8    1.789014 S    
C23   C95   1.430599 S    
C38   C58   1.548795 S    
