data_mof_unit_31740.cif
_audit_creation_date              2012-10-26T20:21:47-0400
_audit_creation_method            fapswitch 2.2
_symmetry_space_group_name_H-M    P1
_symmetry_Int_Tables_number       1
_space_group_crystal_system       triclinic
_cell_length_a                    15.846443
_cell_length_b                    15.00339
_cell_length_c                    9.641652
_cell_angle_alpha                 89.999621
_cell_angle_beta                  89.492333
_cell_angle_gamma                 89.99996
_cell_volume                      2292.21629544

loop_
_atom_site_label
_atom_site_type_symbol
_atom_type_description
_atom_site_fract_x
_atom_site_fract_y
_atom_site_fract_z
_atom_type_partial_charge
C1    C     C_R   0.117674 0.379707 0.499297 0.574469
C2    C     C_R   0.000424 0.579179 0.924504 0.357008
C3    C     C_R   0.999578 0.579179 0.075494 0.357005
C4    C     C_R   0.995435 0.422566 0.925972 0.337172
C5    C     C_R   0.504563 0.922565 0.074030 0.337182
C6    C     C_R   0.500426 0.079179 0.924504 0.357009
C7    C     C_R   0.499579 0.079179 0.075494 0.357003
C8    C     C_R   0.495435 0.922566 0.925974 0.337153
C9    C     C_R   0.818015 0.244818 0.393666 0.093745
C10   C     C_R   0.219457 0.714878 0.622082 0.030992
C11   C     C_R   0.246712 0.690874 0.378980 0.108191
C12   C     C_R   0.877580 0.614685 0.501052 0.558546
C13   C     C_R   0.765083 0.293699 0.615826 0.046479
C14   C     C_R   0.181987 0.244819 0.606337 0.093749
C15   C     C_R   0.780532 0.714867 0.377913 0.030998
C16   C     C_R   0.753290 0.690876 0.621022 0.108189
C17   C     C_R   0.234918 0.293700 0.384175 0.046477
C18   C     C_R   0.318015 0.744817 0.393667 0.093749
C19   C     C_R   0.719462 0.214872 0.622085 0.030994
C20   C     C_R   0.746713 0.190873 0.378980 0.108185
C21   C     C_R   0.265077 0.793705 0.615819 0.046466
C22   C     C_R   0.681988 0.744821 0.606339 0.093743
C23   C     C_R   0.882326 0.379706 0.500703 0.574469
C24   C     C_R   0.280538 0.214873 0.377916 0.030995
C25   C     C_R   0.253290 0.190875 0.621022 0.108196
C26   C     C_R   0.734911 0.793693 0.384166 0.046493
C27   C     C_R   0.195680 0.674933 0.497600 -0.002524
C28   C     C_R   0.820006 0.307208 0.502352 0.000304
C29   C     C_R   0.804316 0.674929 0.502398 -0.002540
C30   C     C_R   0.179995 0.307209 0.497649 0.000302
C31   C     C_R   0.695683 0.174930 0.497601 -0.002535
C32   C     C_R   0.320005 0.807209 0.502351 0.000309
C33   C     C_R   0.304318 0.174931 0.502399 -0.002530
C34   C     C_R   0.122419 0.614686 0.498947 0.558551
C35   C     C_R   0.679993 0.807208 0.497647 0.000299
C36   C     C_3   0.088585 0.298365 0.092673 -0.030583
C37   C     C_3   0.049804 0.720518 0.862971 -0.053898
C38   C     C_3   0.950196 0.720516 0.137033 -0.053900
C39   C     C_3   0.911420 0.298356 0.907338 -0.030575
C40   C     C_3   0.588556 0.798337 0.092657 -0.030559
C41   C     C_3   0.549807 0.220518 0.862972 -0.053896
C42   C     C_3   0.450199 0.220517 0.137032 -0.053905
C43   C     C_3   0.411391 0.798385 0.907328 -0.030596
C44   C     C_R   0.617674 0.879706 0.499296 0.574467
C45   C     C_R   0.377581 0.114686 0.501053 0.558550
C46   C     C_R   0.382326 0.879707 0.500703 0.574471
C47   C     C_R   0.622419 0.114685 0.498947 0.558546
C48   C     C_R   0.004562 0.422566 0.074029 0.337164
Cu1   Cu    Cu3+1 0.000000 0.500000 0.640660 1.137158
Cu2   Cu    Cu3+1 0.000000 0.500000 0.359340 1.137151
Cu3   Cu    Cu3+1 0.500000 0.000000 0.640660 1.137152
Cu4   Cu    Cu3+1 0.500000 0.000000 0.359340 1.137159
H1    H     H_    0.119309 0.264973 0.180620 0.192986
H2    H     H_    0.880688 0.264973 0.819391 0.192983
H3    H     H_    0.863942 0.341907 0.959767 0.148356
H4    H     H_    0.930511 0.244818 0.979456 0.181385
H5    H     H_    0.619299 0.764962 0.180602 0.192978
H6    H     H_    0.636032 0.841870 0.040190 0.148363
H7    H     H_    0.569446 0.744790 0.020572 0.181388
H8    H     H_    0.579047 0.231293 0.760316 0.176513
H9    H     H_    0.599313 0.204085 0.939759 0.176312
H10   H     H_    0.521302 0.285678 0.889911 0.144747
H11   H     H_    0.420958 0.231283 0.239688 0.176516
H12   H     H_    0.136066 0.341925 0.040269 0.148354
H13   H     H_    0.400696 0.204088 0.060239 0.176307
H14   H     H_    0.478703 0.285680 0.110105 0.144747
H15   H     H_    0.380672 0.764987 0.819383 0.192988
H16   H     H_    0.363912 0.841959 0.959701 0.148344
H17   H     H_    0.430453 0.744862 0.979491 0.181374
H18   H     H_    0.069506 0.244835 0.020533 0.181381
H19   H     H_    0.079043 0.731293 0.760315 0.176515
H20   H     H_    0.099310 0.704086 0.939758 0.176308
H21   H     H_    0.021299 0.785678 0.889911 0.144749
H22   H     H_    0.920954 0.731282 0.239689 0.176513
H23   H     H_    0.900692 0.704086 0.060241 0.176310
H24   H     H_    0.978697 0.785679 0.110103 0.144745
I1    I     I_    0.932437 0.196366 0.307111 -0.208172
I2    I     I_    0.748329 0.128265 0.789585 -0.309588
I3    I     I_    0.725833 0.136301 0.179073 -0.204532
I4    I     I_    0.230603 0.893002 0.761354 -0.302221
I5    I     I_    0.567571 0.696376 0.692917 -0.208153
I6    I     I_    0.251672 0.128268 0.210416 -0.309597
I7    I     I_    0.274178 0.136314 0.820937 -0.204552
I8    I     I_    0.769348 0.892963 0.238558 -0.302195
I9    I     I_    0.248329 0.628273 0.789582 -0.309600
I10   I     I_    0.225830 0.636308 0.179071 -0.204551
I11   I     I_    0.730631 0.392981 0.761403 -0.302210
I12   I     I_    0.067568 0.196367 0.692899 -0.208165
I13   I     I_    0.751671 0.628258 0.210413 -0.309582
I14   I     I_    0.774177 0.636311 0.820935 -0.204535
I15   I     I_    0.269378 0.392986 0.238608 -0.302208
I16   I     I_    0.432437 0.696359 0.307126 -0.208181
N1    N     N_R   0.000000 0.500000 0.852070 -0.234621
N2    N     N_R   0.000000 0.500000 0.147930 -0.234623
N3    N     N_R   0.500000 0.000000 0.852070 -0.234623
N4    N     N_R   0.500000 0.000000 0.147930 -0.234620
O1    O     O_R   0.090170 0.409820 0.618740 -0.462801
O2    O     O_R   0.409830 0.090180 0.381260 -0.486388
O3    O     O_R   0.409830 0.090180 0.618740 -0.438332
O4    O     O_R   0.590170 0.909820 0.381260 -0.453609
O5    O     O_R   0.409830 0.909820 0.381260 -0.462798
O6    O     O_R   0.590170 0.090180 0.618740 -0.486378
O7    O     O_R   0.590170 0.090180 0.381260 -0.438332
O8    O     O_R   0.409830 0.909820 0.618740 -0.453623
O9    O     O_3   0.017343 0.344430 0.145594 -0.536267
O10   O     O_3   0.985195 0.656536 0.849811 -0.540805
O11   O     O_3   0.014807 0.656536 0.150185 -0.540808
O12   O     O_R   0.909830 0.590180 0.381260 -0.486387
O13   O     O_3   0.982655 0.344430 0.854407 -0.536265
O14   O     O_3   0.517336 0.844430 0.145600 -0.536264
O15   O     O_3   0.485199 0.156536 0.849810 -0.540805
O16   O     O_3   0.514810 0.156536 0.150185 -0.540808
O17   O     O_3   0.482645 0.844432 0.854413 -0.536270
O18   O     O_R   0.909830 0.590180 0.618740 -0.438331
O19   O     O_R   0.090170 0.409820 0.381260 -0.453621
O20   O     O_R   0.909830 0.409820 0.381260 -0.462800
O21   O     O_R   0.090170 0.590180 0.618740 -0.486380
O22   O     O_R   0.090170 0.590180 0.381260 -0.438333
O23   O     O_R   0.909830 0.409820 0.618740 -0.453616
O24   O     O_R   0.590170 0.909820 0.618740 -0.462805

loop_
_geom_bond_atom_site_label_1
_geom_bond_atom_site_label_2
_ccdc_geom_bond_type
C10   C27   A    
C34   O22   A    
C4    O13   S    
Cu4   O7    S    
C16   I14   S    
C12   C29   S    
C33   C45   S    
C6    O15   S    
C17   I15   S    
C41   H9    S    
C19   C31   A    
C11   C18   A    
C38   H24   S    
Cu3   O6    S    
C22   C35   A    
C48   N2    A    
C10   I9    S    
C45   O2    A    
C23   O23   A    
C39   H2    S    
C5    O14   S    
C44   O24   A    
C11   I10   S    
C4    C48   A    
C7    O16   S    
Cu2   O19   S    
C38   O11   S    
C24   I6    S    
C42   O16   S    
C36   H1    S    
C23   O20   A    
Cu1   O21   S    
C48   O9    S    
C43   H16   S    
C42   H13   S    
C26   I8    S    
C13   C28   A    
C34   O21   A    
Cu1   O18   S    
C10   C21   A    
C47   O6    A    
C31   C47   S    
Cu2   O12   S    
C17   C30   A    
C8    N3    A    
C41   H10   S    
C14   C30   A    
C21   C32   A    
C36   H18   S    
C15   C29   A    
C12   O18   A    
C38   H23   S    
C27   C34   S    
Cu3   O3    S    
C46   O5    A    
C39   H3    S    
Cu4   O5    S    
C17   C24   A    
C40   H6    S    
C13   C19   A    
Cu3   Cu4   S    
C22   I5    S    
C47   O7    A    
C45   O3    A    
C1    O1    A    
C12   O12   A    
Cu2   N2    S    
C15   C26   A    
C40   O14   S    
C3    O11   S    
Cu3   O8    S    
C46   O8    A    
Cu4   O4    S    
C19   I2    S    
C7    N4    A    
C15   I13   S    
C9    C20   A    
C39   H4    S    
C11   C27   A    
C13   I11   S    
Cu3   O24   S    
C9    I1    S    
C23   C28   S    
C35   C44   S    
C8    O17   S    
C43   H15   S    
C6    N3    A    
C37   H19   S    
C18   C32   A    
C5    N4    A    
C25   I7    S    
C38   H22   S    
C37   H21   S    
C16   C22   A    
C40   H5    S    
C20   I3    S    
C36   O9    S    
Cu2   O22   S    
C32   C46   S    
C2    N1    A    
C42   H14   S    
C41   H8    S    
C5    C8    A    
C6    C7    A    
C24   C33   A    
C18   I16   S    
C2    C3    A    
C16   C29   A    
C14   I12   S    
C37   O10   S    
C43   O17   S    
C44   O4    A    
Cu1   O23   S    
C21   I4    S    
Cu4   O2    S    
C1    C30   S    
C2    O10   S    
Cu4   N4    S    
C3    N2    A    
Cu2   O20   S    
C14   C25   A    
Cu1   O1    S    
C4    N1    A    
C26   C35   A    
C39   O13   S    
C43   H17   S    
Cu1   Cu2   S    
C41   O15   S    
C37   H20   S    
Cu3   N3    S    
C40   H7    S    
C1    O19   A    
Cu1   N1    S    
C36   H12   S    
C42   H11   S    
C9    C28   A    
C25   C33   A    
C20   C31   A    
