data_mof_unit_12564.cif
_audit_creation_date              2012-12-10T18:52:13-0500
_audit_creation_method            fapswitch 2.2
_symmetry_space_group_name_H-M    P1
_symmetry_Int_Tables_number       1
_space_group_crystal_system       triclinic
_cell_length_a                    15.698316
_cell_length_b                    10.671407
_cell_length_c                    9.906504
_cell_angle_alpha                 89.499634
_cell_angle_beta                  88.660548
_cell_angle_gamma                 91.008363
_cell_volume                      1658.78862328

loop_
_atom_site_label
_atom_site_type_symbol
_atom_type_description
_atom_site_fract_x
_atom_site_fract_y
_atom_site_fract_z
_atom_type_partial_charge
C1    C     C_R   0.501113 0.260247 0.500110 0.937170
C2    C     C_R   0.499000 0.739611 0.499684 0.912558
C3    C     C_R   0.544640 0.935880 0.398899 -0.370047
C4    C     C_R   0.453326 0.063519 0.599219 -0.367581
C5    C     C_R   0.496914 0.871920 0.498679 -0.197109
C6    C     C_R   0.501180 0.127640 0.499395 -0.191493
C7    C     C_R   0.562368 0.563659 0.066964 0.232773
C8    C     C_R   0.437626 0.436350 0.933039 0.247748
C9    C     C_R   0.561566 0.563225 0.923720 -0.093443
C10   C     C_R   0.438466 0.436693 0.076286 -0.124479
C11   C     C_R   0.337974 0.500121 0.501400 0.891149
C12   C     C_R   0.662057 0.500435 0.498634 0.916677
C13   C     C_3   0.968612 0.415140 0.585019 -0.159293
C14   C     C_3   0.031685 0.594303 0.416536 -0.167614
C15   C     C_3   0.028025 0.392183 0.461361 -0.163600
C16   C     C_3   0.972180 0.617278 0.540217 -0.169628
C17   C     C_1   0.248976 0.501970 0.504453 -0.198230
C18   C     C_1   0.751149 0.502081 0.495850 -0.179976
C19   C     C_3   0.025090 0.527705 0.627269 -0.171404
C20   C     C_3   0.975206 0.481727 0.374306 -0.160459
C21   C     C_3   0.082712 0.504719 0.503571 0.211817
C22   C     C_3   0.917533 0.504668 0.497966 0.212020
C23   C     C_1   0.173606 0.503601 0.505205 -0.092768
C24   C     C_1   0.826580 0.503562 0.495735 -0.082181
C25   C     C_R   0.545473 0.065023 0.396123 0.484150
C26   C     C_R   0.448958 0.934730 0.597426 0.490200
H1    H     H_    0.053057 0.300160 0.429332 0.129618
H2    H     H_    0.947121 0.709278 0.572248 0.132612
H3    H     H_    0.940625 0.341847 0.653721 0.133688
H4    H     H_    0.059744 0.667581 0.347889 0.130736
H5    H     H_    0.952636 0.462991 0.270919 0.132858
H6    H     H_    0.047783 0.546517 0.730574 0.131150
H7    H     H_    0.583021 0.885813 0.325631 0.170573
H8    H     H_    0.417797 0.113059 0.676440 0.175734
H9    H     H_    0.610784 0.612749 0.865207 0.148428
H10   H     H_    0.389386 0.386889 0.134811 0.145115
N1    N     N_R   0.499980 0.499970 0.857200 -0.096057
N2    N     N_R   0.500020 0.500030 0.142800 -0.099297
O1    O     O_R   0.499990 0.316750 0.614620 -0.634452
O2    O     O_R   0.500010 0.683250 0.385380 -0.638753
O3    O     O_R   0.500000 0.316780 0.385290 -0.593844
O4    O     O_R   0.500000 0.683220 0.614710 -0.568184
O5    O     O_R   0.376780 0.499970 0.614640 -0.620355
O6    O     O_R   0.623220 0.500030 0.385360 -0.611429
O7    O     O_R   0.376780 0.500000 0.385310 -0.620556
O8    O     O_R   0.623220 0.500000 0.614690 -0.623417
Zn1   Zn    Zn3+2 0.500000 0.499980 0.653120 0.958210
Zn2   Zn    Zn3+2 0.500000 0.500020 0.346880 0.946593
O9    O     O_3   0.597190 0.130146 0.303321 -0.598678
C27   C     C_3   0.562339 0.119510 0.173544 0.127364
H11   H     H_    0.494918 0.150748 0.173815 0.139670
H12   H     H_    0.565240 0.021367 0.136861 0.134813
C28   C     C_3   0.613723 0.202639 0.074985 -0.786079
H13   H     H_    0.680120 0.168961 0.065769 0.244834
H14   H     H_    0.584397 0.200324 0.974053 0.208847
H15   H     H_    0.615044 0.300692 0.111366 0.265960
O10   O     O_3   0.401207 0.870957 0.695931 -0.588996
C29   C     C_3   0.318873 0.847641 0.646394 0.106919
H16   H     H_    0.321680 0.792497 0.551396 0.118644
H17   H     H_    0.285682 0.937312 0.627367 0.126190
C30   C     C_3   0.266859 0.772037 0.750988 -0.800654
H18   H     H_    0.260061 0.826241 0.845703 0.246389
H19   H     H_    0.202503 0.750784 0.711897 0.197885
H20   H     H_    0.298932 0.682524 0.773227 0.270573
C31   C     C_3   0.635048 0.631241 0.131945 -0.849048
H21   H     H_    0.668691 0.696168 0.059528 0.196557
H22   H     H_    0.612376 0.688750 0.216861 0.265653
H23   H     H_    0.682300 0.562443 0.165825 0.248696
C32   C     C_3   0.365121 0.368323 0.868067 -0.855575
H24   H     H_    0.317689 0.436757 0.834011 0.246568
H25   H     H_    0.331620 0.303302 0.940546 0.193241
H26   H     H_    0.387956 0.310825 0.783270 0.264298

loop_
_geom_bond_atom_site_label_1
_geom_bond_atom_site_label_2
_ccdc_geom_bond_type
C16   H2    S    
C30   H20   S    
C27   H12   S    
C22   C24   S    
C11   O5    A    
C9    H9    S    
C14   C20   S    
C32   H26   S    
C20   C22   S    
C27   C28   S    
C28   H14   S    
C15   H1    S    
C3    C25   A    
C10   N2    A    
C31   H23   S    
C7    C9    A    
C3    C5    A    
C29   C30   S    
C9    N1    A    
C27   H11   S    
O10   C29   S    
C12   O8    A    
C12   O6    A    
C28   H13   S    
C8    C32   S    
C17   C23   T    
O5    Zn1   S    
C2    O4    A    
C16   C19   S    
C18   C24   T    
C19   H6    S    
C14   C21   S    
C13   H3    S    
C19   C21   S    
C7    N2    A    
C14   H4    S    
C13   C22   S    
C31   H21   S    
C29   H17   S    
C14   C16   S    
O4    Zn1   S    
C13   C15   S    
C21   C23   S    
C30   H18   S    
C20   H5    S    
C26   O10   S    
C4    H8    S    
C4    C26   A    
C11   O7    A    
C2    C5    S    
N1    Zn1   S    
C8    N1    A    
C1    O1    A    
C4    C6    A    
C5    C26   A    
C6    C25   A    
C2    O2    A    
C15   C21   S    
C30   H19   S    
O9    C27   S    
C28   H15   S    
C1    O3    A    
C1    C6    S    
C32   H25   S    
C3    H7    S    
O2    Zn2   S    
C11   C17   S    
C13   C19   S    
C10   H10   S    
C32   H24   S    
C31   H22   S    
C29   H16   S    
O8    Zn1   S    
O1    Zn1   S    
N2    Zn2   S    
C7    C31   S    
O3    Zn2   S    
C8    C10   A    
O6    Zn2   S    
C16   C22   S    
C15   C20   S    
O7    Zn2   S    
C25   O9    S    
C12   C18   S    
