data_mof_unit_26631.cif
_audit_creation_date              2012-12-10T17:34:59-0500
_audit_creation_method            fapswitch 2.2
_symmetry_space_group_name_H-M    P1
_symmetry_Int_Tables_number       1
_space_group_crystal_system       triclinic
_cell_length_a                    12.071173
_cell_length_b                    12.770049
_cell_length_c                    15.772744
_cell_angle_alpha                 91.130199
_cell_angle_beta                  86.061346
_cell_angle_gamma                 94.807632
_cell_volume                      2416.84504511

loop_
_atom_site_label
_atom_site_type_symbol
_atom_type_description
_atom_site_fract_x
_atom_site_fract_y
_atom_site_fract_z
_atom_type_partial_charge
C1    C     C_R   0.523498 0.700959 0.503126 0.892173
C2    C     C_3   0.415986 0.571148 0.055082 -0.324470
C3    C     C_3   0.504570 0.496540 0.083059 0.052879
C4    C     C_3   0.469492 0.381634 0.049150 -0.096271
C5    C     C_3   0.487236 0.374746 0.949175 0.107068
C6    C     C_1   0.502098 0.497422 0.175122 -0.004892
C7    C     C_1   0.500506 0.495315 0.824474 0.079603
C8    C     C_1   0.499905 0.497793 0.749566 -0.046683
C9    C     C_R   0.459807 0.186701 0.523793 -0.076468
C10   C     C_R   0.539737 0.813299 0.519501 -0.195540
C11   C     C_R   0.649042 0.980187 0.521105 -0.271557
C12   C     C_R   0.499974 0.500080 0.661287 0.889486
C13   C     C_R   0.642329 0.873563 0.500028 -0.015311
C14   C     C_R   0.448655 0.863316 0.557522 -0.032623
C15   C     C_R   0.447209 0.970205 0.543165 0.115923
C16   C     C_R   0.550576 0.029650 0.539904 0.024538
C17   C     C_R   0.551851 0.137323 0.550357 -0.084080
C18   C     C_R   0.357934 0.126203 0.509016 0.062838
C19   C     C_R   0.348940 0.017699 0.527021 0.014070
C20   C     C_R   0.956616 0.427639 0.402944 0.062318
C21   C     C_R   0.839215 0.426357 0.417300 0.089354
C22   C     C_R   0.858347 0.528405 0.544699 0.277262
C23   C     C_R   0.476513 0.298999 0.505974 0.944142
C24   C     C_R   0.975591 0.517327 0.540456 0.017850
C25   C     C_R   0.025193 0.474692 0.464836 -0.011115
C26   C     C_R   0.143051 0.477762 0.454231 -0.017473
C27   C     C_R   0.162240 0.553161 0.590718 0.056616
C28   C     C_R   0.046536 0.548551 0.607442 0.089823
C29   C     C_R   0.500065 0.499670 0.338682 0.929311
C30   C     C_3   0.401503 0.558716 0.956263 -0.215616
C31   C     C_3   0.614683 0.551824 0.945019 -0.256926
C32   C     C_3   0.624513 0.540646 0.044313 -0.099562
C33   C     C_1   0.500471 0.498537 0.250242 -0.126264
C34   C     C_3   0.501169 0.493384 0.916242 0.055210
H1    H     H_    0.451634 0.652769 0.067654 0.207082
H2    H     H_    0.728171 0.026083 0.510284 0.138985
H3    H     H_    0.184760 0.445497 0.398119 0.150950
H4    H     H_    0.216905 0.578391 0.640032 0.157427
H5    H     H_    0.605895 0.635762 0.933153 0.048734
H6    H     H_    0.378423 0.370839 0.065914 0.122270
N1    N     N_R   0.207800 0.519340 0.515510 -0.126749
N2    N     N_R   0.792190 0.480660 0.484490 -0.137935
O1    O     O_R   0.421690 0.658830 0.504140 -0.606919
O2    O     O_R   0.609320 0.646410 0.494190 -0.604285
O3    O     O_R   0.406150 0.506210 0.627840 -0.636852
O4    O     O_R   0.593770 0.493790 0.617880 -0.592180
O5    O     O_R   0.390680 0.353590 0.505810 -0.628649
O6    O     O_R   0.578310 0.341170 0.495860 -0.567398
O7    O     O_R   0.406230 0.506210 0.382120 -0.616645
O8    O     O_R   0.593850 0.493790 0.372160 -0.616955
Zn1   Zn    Zn3+2 0.374720 0.508290 0.506640 0.975223
Zn2   Zn    Zn3+2 0.625280 0.491710 0.493360 1.016289
C35   C     C_2   0.288012 0.504852 0.935912 0.511767
H7    H     H_    0.241510 0.451095 0.980109 0.017971
O9    O     O_2   0.249988 0.516322 0.867122 -0.552100
C36   C     C_2   0.306572 0.562770 0.109917 0.488529
H8    H     H_    0.260806 0.487249 0.121972 0.025553
O10   O     O_2   0.269820 0.641320 0.142567 -0.491816
C37   C     C_3   0.510707 0.288096 0.096198 -0.893307
H9    H     H_    0.601072 0.280846 0.084943 0.250139
H10   H     H_    0.490013 0.293336 0.165683 0.247951
H11   H     H_    0.467210 0.213580 0.073838 0.252376
C38   C     C_2   0.643374 0.193827 0.596784 0.500965
H12   H     H_    0.726873 0.168179 0.592006 0.049478
O11   O     O_2   0.624178 0.266556 0.645552 -0.543669
C39   C     C_3   0.263010 0.175364 0.470083 -0.858993
H13   H     H_    0.198497 0.117495 0.446420 0.219188
H14   H     H_    0.221393 0.226905 0.517647 0.265142
H15   H     H_    0.295406 0.221185 0.413243 0.243463
C40   C     C_2   0.241284 0.953647 0.517884 0.494185
H16   H     H_    0.163532 0.984447 0.540986 0.066396
O12   O     O_2   0.238300 0.867436 0.482798 -0.547691
C41   C     C_2   0.742834 0.832084 0.456883 0.461839
H17   H     H_    0.824732 0.860331 0.476272 0.046234
O13   O     O_2   0.736020 0.772645 0.395547 -0.495260
C42   C     C_2   0.372238 0.811352 0.625895 0.456727
H18   H     H_    0.379249 0.730466 0.642788 0.058905
O14   O     O_2   0.305555 0.860565 0.668667 -0.560447
C43   C     C_2   0.405121 0.669159 0.919113 0.495266
H19   H     H_    0.460382 0.691880 0.864207 0.030508
O15   O     O_2   0.342387 0.732779 0.948905 -0.498578
C44   C     C_3   0.009049 0.376966 0.323624 -0.877318
H20   H     H_    0.948180 0.342820 0.279220 0.244680
H21   H     H_    0.064363 0.436740 0.287459 0.253605
H22   H     H_    0.058427 0.312451 0.342004 0.241072
C45   C     C_3   0.005822 0.559973 0.699790 -0.821400
H23   H     H_    0.073042 0.549127 0.742771 0.271360
H24   H     H_    0.978413 0.639445 0.713982 0.245825
H25   H     H_    0.938792 0.497676 0.716831 0.273728
C46   C     C_2   0.767094 0.366691 0.358770 0.497882
H26   H     H_    0.752185 0.400013 0.298233 0.058062
O16   O     O_2   0.729973 0.277093 0.375376 -0.584408
C47   C     C_3   0.809962 0.604223 0.608575 -0.806074
H27   H     H_    0.734962 0.635141 0.588976 0.259332
H28   H     H_    0.788834 0.566486 0.670847 0.265410
H29   H     H_    0.867902 0.675743 0.614230 0.205250
C48   C     C_2   0.722242 0.539754 0.890337 0.463434
H30   H     H_    0.795791 0.590672 0.903626 0.116099
O17   O     O_2   0.728530 0.478142 0.830473 -0.586374
C49   C     C_2   0.659234 0.649108 0.082451 0.400383
H31   H     H_    0.658113 0.720252 0.046132 0.068325
O18   O     O_2   0.686667 0.658612 0.155566 -0.512690
C50   C     C_2   0.713819 0.470500 0.068843 0.467463
H32   H     H_    0.699340 0.422909 0.125208 0.082102
O19   O     O_2   0.807611 0.476544 0.034083 -0.575030
C51   C     C_2   0.387261 0.309616 0.914331 0.394210
H33   H     H_    0.321879 0.272432 0.957016 0.062766
O20   O     O_2   0.380475 0.294645 0.838034 -0.521418
C52   C     C_3   0.588482 0.312343 0.918813 -0.649098
H34   H     H_    0.573306 0.228088 0.935920 0.209323
H35   H     H_    0.602261 0.313575 0.848502 0.292901
H36   H     H_    0.666342 0.342155 0.946754 0.251867

loop_
_geom_bond_atom_site_label_1
_geom_bond_atom_site_label_2
_ccdc_geom_bond_type
C2    H1    S    
C39   H14   S    
C38   O11   D    
C47   H27   S    
C20   C44   S    
C41   H17   S    
C3    C6    S    
C48   H30   S    
C7    C8    T    
C29   O7    A    
C35   H7    S    
C15   C19   A    
C51   O20   D    
C11   H2    S    
C42   O14   D    
C52   H35   S    
C45   H24   S    
C39   H15   S    
C20   C25   A    
O3    Zn1   S    
C27   H4    S    
C15   C16   A    
O4    Zn2   S    
C36   H8    S    
C18   C19   A    
C1    O1    A    
C4    H6    S    
C29   C33   S    
C31   H5    S    
C16   C17   A    
O7    Zn1   S    
O8    Zn2   S    
C40   H16   S    
C29   O8    A    
O2    Zn2   S    
C39   H13   S    
C37   H9    S    
C47   H28   S    
C41   O13   D    
C48   O17   D    
C21   C46   S    
C35   O9    D    
C30   C35   S    
C37   H10   S    
C23   O5    A    
C30   C34   S    
C24   C25   A    
C12   O4    A    
C10   C14   A    
C52   H36   S    
C43   O15   D    
C45   H23   S    
C9    C23   S    
O5    Zn1   S    
C25   C26   A    
C45   H25   S    
C32   C49   S    
C14   C42   S    
C11   C16   A    
C27   N1    A    
C1    O2    A    
C46   O16   D    
C31   C32   S    
O6    Zn2   S    
C8    C12   S    
C5    C34   S    
C49   O18   D    
C32   C50   S    
C50   O19   D    
C42   H18   S    
C30   C43   S    
C9    C17   A    
C13   C41   S    
C47   H29   S    
C44   H21   S    
C28   C45   S    
C22   C47   S    
C22   C24   A    
C43   H19   S    
C3    C4    S    
C27   C28   A    
C31   C34   S    
C37   H11   S    
C23   O6    A    
C5    C51   S    
C1    C10   S    
C24   C28   A    
C38   H12   S    
C10   C13   A    
C26   H3    S    
C12   O3    A    
C18   C39   S    
C44   H22   S    
C6    C33   T    
C2    C30   S    
C2    C3    S    
C2    C36   S    
C52   H34   S    
C17   C38   S    
C11   C13   A    
O1    Zn1   S    
C46   H26   S    
C22   N2    A    
C5    C52   S    
C4    C37   S    
C49   H31   S    
C7    C34   S    
C36   O10   D    
C31   C48   S    
C3    C32   S    
C21   N2    A    
C9    C18   A    
C4    C5    S    
C20   C21   A    
C44   H20   S    
C51   H33   S    
C50   H32   S    
C14   C15   A    
C19   C40   S    
C40   O12   D    
N1    Zn1   S    
C26   N1    A    
N2    Zn2   S    
