data_mof_unit_8659.cif
_audit_creation_date              2013-03-05T16:34:13-0500
_audit_creation_method            fapswitch 2.2
_symmetry_space_group_name_H-M    P1
_symmetry_Int_Tables_number       1
_space_group_crystal_system       triclinic
_cell_length_a                    10.912154
_cell_length_b                    10.954637
_cell_length_c                    9.583661
_cell_angle_alpha                 88.77774
_cell_angle_beta                  92.4592
_cell_angle_gamma                 93.536216
_cell_volume                      1142.18337289

loop_
_atom_site_label
_atom_site_type_symbol
_atom_site_description
_atom_site_fract_x
_atom_site_fract_y
_atom_site_fract_z
_atom_type_partial_charge
O1    O     O_R   0.500000 0.319640 0.618810 -0.545009
O2    O     O_R   0.500010 0.319680 0.381230 -0.597572
C1    C     C_R   0.502878 0.262807 0.501069 0.846984
O3    O     O_R   0.319640 0.499990 0.618790 -0.564709
O4    O     O_R   0.319650 0.500030 0.381210 -0.597001
C2    C     C_R   0.261906 0.495726 0.496723 0.815630
Cu1   Cu    Cu3+1 0.499990 0.499980 0.640670 1.011690
Cu2   Cu    Cu3+1 0.500010 0.500020 0.359330 0.978194
O5    O     O_R   0.499990 0.680320 0.618770 -0.587127
O6    O     O_R   0.500000 0.680360 0.381190 -0.584227
O7    O     O_R   0.680350 0.499970 0.618790 -0.554720
O8    O     O_R   0.680360 0.500010 0.381210 -0.596770
C3    C     C_R   0.500804 0.737611 0.497996 0.788857
C4    C     C_R   0.737960 0.506258 0.502622 0.803123
C5    C     C_R   0.123950 0.422573 0.015995 -0.274997
H1    H     H_    0.150783 0.487116 0.934103 0.172134
C6    C     C_R   0.120085 0.464026 0.152606 -0.188582
H2    H     H_    0.138678 0.560534 0.172445 0.163394
C7    C     C_R   0.085979 0.382901 0.261500 0.096149
C8    C     C_R   0.053105 0.260057 0.230856 -0.163607
H3    H     H_    0.020397 0.197494 0.311958 0.215054
C9    C     C_R   0.057331 0.218346 0.094467 -0.146300
H4    H     H_    0.031667 0.123174 0.073945 0.178675
C10   C     C_R   0.093942 0.298959 0.985850 0.405343
C11   C     C_R   0.922048 0.430799 0.409575 -0.140554
H5    H     H_    0.861240 0.378072 0.337658 0.167983
C12   C     C_R   0.871893 0.504233 0.506565 -0.061345
C13   C     C_R   0.950983 0.580000 0.592790 0.035250
C14   C     C_R   0.077183 0.568232 0.591295 -0.152946
H6    H     H_    0.137738 0.625239 0.659178 0.146324
C15   C     C_R   0.127702 0.497685 0.491414 -0.042128
C16   C     C_R   0.048414 0.433471 0.393351 0.034101
C17   C     C_R   0.893841 0.797084 0.563719 -0.144342
C18   C     C_R   0.887834 0.914358 0.621196 0.363577
C19   C     C_R   0.900821 0.926822 0.766757 -0.106993
H7    H     H_    0.893213 0.014607 0.813754 0.234435
C20   C     C_R   0.927465 0.827369 0.853187 -0.226453
H8    H     H_    0.941686 0.839401 0.964659 0.188872
C21   C     C_R   0.936704 0.712562 0.796308 -0.173191
H9    H     H_    0.962507 0.637221 0.864243 0.163586
C22   C     C_R   0.914583 0.694779 0.652754 -0.013806
C23   C     C_R   0.463982 0.057952 0.613667 0.003410
C24   C     C_R   0.503368 0.129487 0.499202 -0.090190
C25   C     C_R   0.533822 0.069483 0.376554 -0.052001
C26   C     C_R   0.516954 0.941702 0.368333 -0.060586
C27   C     C_R   0.497658 0.870947 0.492047 -0.114379
C28   C     C_R   0.471854 0.932464 0.611769 0.033015
C29   C     C_3   0.524249 0.922705 0.757327 -0.497109
C30   C     C_3   0.507266 0.059441 0.765225 0.249855
H10   H     H_    0.464030 0.863021 0.824433 0.196821
H11   H     H_    0.621921 0.899093 0.760026 0.207370
C31   C     C_R   0.559661 0.592640 0.074142 0.282802
N1    N     N_R   0.500790 0.500930 0.147930 -0.221131
C32   C     C_R   0.433918 0.412477 0.071790 0.026169
C33   C     C_R   0.432777 0.413879 0.923369 -0.024788
H12   H     H_    0.380659 0.343212 0.865368 0.170977
N2    N     N_R   0.500790 0.500890 0.852020 -0.194000
C34   C     C_R   0.558161 0.593341 0.927090 0.239765
C35   C     C_3   0.690495 0.630024 0.924957 -0.489289
C36   C     C_3   0.693904 0.627385 0.082995 -0.458347
H13   H     H_    0.744228 0.558422 0.880347 0.239676
H14   H     H_    0.703598 0.723287 0.879122 0.208243
H15   H     H_    0.749540 0.553822 0.129173 0.225492
H16   H     H_    0.714276 0.719082 0.128140 0.229653
N3    N     N_R   0.102724 0.255060 0.846633 0.134826
O9    O     O_R   0.129673 0.330305 0.744384 -0.370827
O10   O     O_R   0.092430 0.138518 0.822474 -0.356591
C37   C     C_1   0.597758 0.135406 0.265403 0.373248
N4    N     N_1   0.650274 0.187970 0.178255 -0.207464
C38   C     C_1   0.518131 0.888851 0.231340 0.308915
N5    N     N_1   0.517173 0.850467 0.119893 -0.325290
C39   C     C_1   0.408654 0.083483 0.859111 0.277304
N6    N     N_1   0.330919 0.099205 0.933560 -0.244342
N7    N     N_R   0.621483 0.134879 0.792367 0.131389
O11   O     O_R   0.712406 0.130160 0.710035 -0.337527
O12   O     O_R   0.627748 0.218522 0.887135 -0.353172
C40   C     C_1   0.371144 0.310909 0.140364 0.348927
N8    N     N_1   0.322285 0.227780 0.195722 -0.282938
C41   C     C_1   0.898656 0.784737 0.413953 0.306707
N9    N     N_1   0.904165 0.774930 0.294484 -0.308476
N10   N     N_R   0.878536 0.022113 0.533384 0.133253
O13   O     O_R   0.817203 0.017711 0.413983 -0.403671
O14   O     O_R   0.931770 0.126079 0.572724 -0.282675

loop_
_geom_bond_atom_site_label_1
_geom_bond_atom_site_label_2
_geom_bond_distance
_ccdc_geom_bond_type
C33   H12   1.081031 S    
C19   H7    1.079847 S    
N10   O13   1.300893 A    
Cu1   Cu2   2.696266 S    
C21   C22   1.402178 A    
N1    C32   1.378798 A    
C25   C26   1.403986 A    
Cu1   O7    1.988189 S    
C1    C24   1.461308 S    
C20   H8    1.082585 S    
N7    O12   1.300599 A    
C36   H15   1.111723 S    
C13   C14   1.391739 A    
C19   C20   1.391945 A    
C3    C27   1.462998 S    
O7    C4    1.300328 A    
C5    H1    1.082640 S    
C13   C22   1.476827 S    
C5    C6    1.398043 A    
C18   C19   1.404829 A    
O5    C3    1.304945 A    
C31   C36   1.489927 S    
C27   C28   1.390687 A    
C29   H11   1.111257 S    
C28   C29   1.488969 S    
C37   N4    1.156454 T    
N3    O10   1.299540 A    
C30   C39   1.471401 S    
C38   N5    1.155577 T    
C18   N10   1.441170 S    
C4    C12   1.461886 S    
C40   N8    1.157056 T    
C32   C40   1.432661 S    
C11   C16   1.392721 A    
C29   H10   1.112745 S    
C2    C15   1.464617 S    
C35   C36   1.513149 S    
C30   N7    1.469110 S    
O3    Cu1   1.970185 S    
C7    C16   1.474443 S    
N10   O14   1.301774 A    
C17   C18   1.414858 A    
C35   H13   1.111021 S    
N7    O11   1.298035 A    
O3    C2    1.305020 A    
C21   H9    1.083679 S    
C17   C41   1.448028 S    
C11   H5    1.086011 S    
C26   C27   1.418772 A    
O1    C1    1.302796 A    
C24   C25   1.420406 A    
C14   H6    1.086008 S    
C15   C16   1.417739 A    
Cu2   O8    1.970186 S    
C6    H2    1.083434 S    
C31   C34   1.408554 A    
C10   N3    1.436867 S    
Cu2   O6    1.991082 S    
C29   C30   1.524491 S    
C8    C9    1.397383 A    
C33   N2    1.362125 A    
C9    C10   1.405692 A    
C25   C37   1.453205 S    
C23   C24   1.401585 A    
C31   N1    1.360567 A    
Cu1   O5    1.982219 S    
C32   C33   1.421707 A    
C5    C10   1.406511 A    
C35   H14   1.106987 S    
C26   C38   1.447011 S    
O1    Cu1   1.991082 S    
O2    Cu2   1.982221 S    
O8    C4    1.299612 A    
C39   N6    1.154763 T    
O6    C3    1.294203 A    
Cu2   N1    2.026179 S    
O4    Cu2   1.988189 S    
C11   C12   1.393034 A    
C36   H16   1.108325 S    
C17   C22   1.417471 A    
C7    C8    1.405044 A    
O2    C1    1.294981 A    
C34   C35   1.475732 S    
C14   C15   1.395290 A    
N2    C34   1.359943 A    
O4    C2    1.295675 A    
C6    C7    1.403694 A    
C23   C28   1.383194 A    
C23   C30   1.508063 S    
C41   N9    1.156732 T    
C8    H3    1.082656 S    
C20   C21   1.392349 A    
N3    O9    1.298665 A    
C12   C13   1.412900 A    
C9    H4    1.082620 S    
Cu1   N2    2.025386 S    
