data_mof_unit_9012.cif
_audit_creation_date              2012-12-10T17:49:34-0500
_audit_creation_method            fapswitch 2.2
_symmetry_space_group_name_H-M    P1
_symmetry_Int_Tables_number       1
_space_group_crystal_system       triclinic
_cell_length_a                    14.708531
_cell_length_b                    14.709119
_cell_length_c                    15.871498
_cell_angle_alpha                 77.018667
_cell_angle_beta                  102.682749
_cell_angle_gamma                 114.792786
_cell_volume                      3006.97939979

loop_
_atom_site_label
_atom_site_type_symbol
_atom_type_description
_atom_site_fract_x
_atom_site_fract_y
_atom_site_fract_z
_atom_type_partial_charge
C1    C     C_R   0.880350 0.312332 0.513773 0.792585
C2    C     C_3   0.025391 0.411054 0.072111 -0.373566
C3    C     C_3   0.000534 0.499943 0.082901 0.327829
C4    C     C_3   0.080470 0.600610 0.044130 -0.378753
C5    C     C_3   0.079811 0.600746 0.946323 -0.374284
C6    C     C_1   0.001041 0.499831 0.175212 -0.115692
C7    C     C_1   0.998936 0.500264 0.824780 -0.114914
C8    C     C_1   0.998970 0.500237 0.749196 -0.179849
C9    C     C_R   0.812673 0.205102 0.515559 -0.052563
C10   C     C_R   0.187296 0.795273 0.473645 -0.053777
C11   C     C_R   0.782889 0.030440 0.515804 -0.191165
C12   C     C_R   0.999655 0.500048 0.659652 0.829892
C13   C     C_R   0.849889 0.130227 0.521379 -0.198196
C14   C     C_R   0.708303 0.178958 0.505604 -0.250615
C15   C     C_R   0.639016 0.079999 0.495583 0.088265
C16   C     C_R   0.678039 0.004856 0.502683 0.160873
C17   C     C_R   0.532454 0.053670 0.479585 0.064876
C18   C     C_R   0.466291 0.950112 0.479362 0.064204
C19   C     C_R   0.508436 0.877822 0.485135 -0.224843
C20   C     C_R   0.612242 0.905099 0.496045 -0.219267
C21   C     C_R   0.489872 0.127556 0.461784 -0.223949
C22   C     C_R   0.386003 0.100427 0.448892 -0.230418
C23   C     C_R   0.119667 0.687688 0.484970 0.793963
C24   C     C_R   0.320638 0.998971 0.454993 0.163175
C25   C     C_R   0.360002 0.922636 0.471691 0.089024
C26   C     C_R   0.215931 0.973003 0.445082 -0.199785
C27   C     C_R   0.149538 0.871712 0.453707 -0.194900
C28   C     C_R   0.291625 0.821149 0.482844 -0.256056
C29   C     C_R   0.718761 0.672918 0.358264 0.319624
C30   C     C_R   0.799659 0.641753 0.381265 -0.032148
C31   C     C_R   0.713308 0.507644 0.486029 -0.018108
C32   C     C_R   0.628583 0.535453 0.467036 -0.078832
C33   C     C_R   0.633675 0.621023 0.402554 0.057985
C34   C     C_R   0.000350 0.499970 0.340349 0.830838
C35   C     C_R   0.540428 0.482699 0.510280 0.106034
C36   C     C_R   0.459294 0.517538 0.488777 0.084787
C37   C     C_R   0.469165 0.604019 0.425207 -0.264354
C38   C     C_R   0.554081 0.654063 0.383018 -0.175878
C39   C     C_R   0.530539 0.396243 0.574156 -0.239282
C40   C     C_R   0.445797 0.346712 0.616739 -0.204761
C41   C     C_R   0.366616 0.379946 0.596764 0.163486
C42   C     C_R   0.371190 0.464873 0.531973 -0.025326
C43   C     C_R   0.282008 0.327906 0.640709 -0.321516
C44   C     C_R   0.201544 0.359004 0.619575 0.077010
C45   C     C_3   0.024732 0.411183 0.974308 -0.378301
C46   C     C_R   0.286030 0.492048 0.513010 0.009331
C47   C     C_3   0.894412 0.488440 0.932655 -0.375470
C48   C     C_3   0.895065 0.488311 0.030460 -0.376284
C49   C     C_1   0.001031 0.499822 0.250804 -0.180732
C50   C     C_3   0.999426 0.500169 0.917091 0.327367
Cu1   Cu    Cu3+1 0.081750 0.475690 0.522550 0.936501
Cu2   Cu    Cu3+1 0.918250 0.524310 0.477450 0.934466
H1    H     H_    0.968862 0.337690 0.099400 0.163705
H2    H     H_    0.100049 0.417934 0.964397 0.163010
H3    H     H_    0.101023 0.417763 0.109104 0.163216
H4    H     H_    0.064201 0.665794 0.050976 0.161167
H5    H     H_    0.641191 0.847341 0.499773 0.157306
H6    H     H_    0.318054 0.760498 0.501347 0.151020
H7    H     H_    0.069032 0.853325 0.446051 0.158693
H8    H     H_    0.356703 0.159498 0.435230 0.148681
H9    H     H_    0.813021 0.973387 0.520595 0.139196
H10   H     H_    0.930453 0.148914 0.529099 0.154243
H11   H     H_    0.683051 0.237453 0.506748 0.144585
H12   H     H_    0.967890 0.337875 0.954691 0.161250
H13   H     H_    0.463222 0.799538 0.478715 0.141845
H14   H     H_    0.534497 0.207787 0.454697 0.145596
H15   H     H_    0.185462 0.031160 0.431298 0.135319
H16   H     H_    0.557082 0.719818 0.334537 0.185947
H17   H     H_    0.281340 0.553389 0.462977 0.122560
H18   H     H_    0.135618 0.318156 0.652649 0.124702
H19   H     H_    0.441974 0.281024 0.665635 0.142288
H20   H     H_    0.866965 0.683227 0.350070 0.140484
H21   H     H_    0.717297 0.445644 0.535527 0.135707
H22   H     H_    0.874488 0.551660 0.892330 0.163810
H23   H     H_    0.412380 0.635711 0.406396 0.128777
H24   H     H_    0.587104 0.364279 0.593013 0.130716
H25   H     H_    0.277717 0.262957 0.690569 0.135750
H26   H     H_    0.835223 0.416531 0.912273 0.161691
H27   H     H_    0.836171 0.416344 0.056985 0.163336
H28   H     H_    0.875439 0.551468 0.037048 0.160341
H29   H     H_    0.156125 0.610936 0.935901 0.163053
H30   H     H_    0.063223 0.665994 0.906259 0.162169
H31   H     H_    0.157091 0.610718 0.080619 0.162194
N1    N     N_R   0.795410 0.560790 0.443550 -0.198518
N2    N     N_R   0.204590 0.439170 0.556520 -0.176890
O1    O     O_R   0.977910 0.338120 0.529720 -0.590776
O2    O     O_R   0.839850 0.379180 0.491640 -0.588221
O3    O     O_R   0.069060 0.479460 0.639610 -0.576500
O4    O     O_R   0.931000 0.520530 0.601530 -0.573447
O5    O     O_R   0.160150 0.620820 0.508360 -0.591108
O6    O     O_R   0.022090 0.661880 0.470280 -0.586703
O7    O     O_R   0.069000 0.479470 0.398470 -0.577176
O8    O     O_R   0.930940 0.520540 0.360390 -0.577309
O9    O     O_3   0.726152 0.758535 0.297486 -0.587728
C51   C     C_3   0.709531 0.733435 0.213100 0.049483
H32   H     H_    0.635628 0.668691 0.201675 0.139744
H33   H     H_    0.771574 0.713932 0.203388 0.136757
C52   C     C_3   0.707174 0.824190 0.145577 -0.782568
H34   H     H_    0.780290 0.889921 0.154449 0.249890
H35   H     H_    0.694332 0.805478 0.078843 0.194684
H36   H     H_    0.644997 0.844695 0.152806 0.245500

loop_
_geom_bond_atom_site_label_1
_geom_bond_atom_site_label_2
_ccdc_geom_bond_type
C10   C27   A    
C1    O2    A    
C40   H19   S    
C21   H14   S    
C51   H32   S    
C41   C42   A    
C36   C42   A    
C19   C20   A    
C34   O8    A    
C9    C14   A    
C3    C6    S    
Cu1   N2    S    
C51   C52   S    
C7    C8    T    
C25   C28   A    
C26   C27   A    
C29   C30   A    
C26   H15   S    
C48   H27   S    
C36   C37   A    
C24   C26   A    
C2    H3    S    
Cu1   O5    S    
C22   H8    S    
C29   O9    S    
C31   H21   S    
C15   C16   A    
C29   C33   A    
C3    C48   S    
C18   C19   A    
C42   C46   A    
Cu2   N1    S    
C9    C13   A    
C46   H17   S    
C13   H10   S    
C31   C32   A    
C44   H18   S    
C8    C12   S    
C46   N2    A    
C37   H23   S    
C21   C22   A    
C4    H4    S    
C41   C43   A    
Cu2   O4    S    
C18   C25   A    
Cu1   O1    S    
C47   C50   S    
C2    C45   S    
C12   O3    A    
Cu1   Cu2   S    
C32   C35   A    
C12   O4    A    
C1    C9    S    
C24   C25   A    
C47   H22   S    
C39   C40   A    
C17   C21   A    
C31   N1    A    
C35   C36   A    
C35   C39   A    
C43   C44   A    
C37   C38   A    
Cu1   O7    S    
C5    H29   S    
C11   C16   A    
C47   C48   S    
C16   C20   A    
C17   C18   A    
C23   O5    A    
Cu2   O8    S    
C39   H24   S    
C40   C41   A    
C38   H16   S    
C45   H2    S    
C52   H35   S    
C23   O6    A    
C5    C50   S    
C3    C4    S    
C10   C28   A    
C1    O1    A    
C15   C17   A    
C34   C49   S    
Cu2   O2    S    
C7    C50   S    
C4    C5    S    
C11   H9    S    
C2    H1    S    
Cu1   O3    S    
C30   H20   S    
C51   H33   S    
C28   H6    S    
C10   C23   S    
C43   H25   S    
C52   H36   S    
C45   H12   S    
C33   C38   A    
C32   C33   A    
C48   H28   S    
C2    C3    S    
C27   H7    S    
C5    H30   S    
C11   C13   A    
C4    H31   S    
C45   C50   S    
C14   H11   S    
C19   H13   S    
C22   C24   A    
C6    C49   T    
C30   N1    A    
O9    C51   S    
C34   O7    A    
C52   H34   S    
C14   C15   A    
Cu2   O6    S    
C47   H26   S    
C20   H5    S    
C44   N2    A    
