data_mof_unit_15293.cif
_audit_creation_date              2013-03-05T15:40:42-0500
_audit_creation_method            fapswitch 2.2
_symmetry_space_group_name_H-M    P1
_symmetry_Int_Tables_number       1
_space_group_crystal_system       triclinic
_cell_length_a                    7.830056
_cell_length_b                    8.568506
_cell_length_c                    12.166932
_cell_angle_alpha                 92.746341
_cell_angle_beta                  101.521274
_cell_angle_gamma                 94.031417
_cell_volume                      796.270738398

loop_
_atom_site_label
_atom_site_type_symbol
_atom_site_description
_atom_site_fract_x
_atom_site_fract_y
_atom_site_fract_z
_atom_type_partial_charge
O1    O     O_R   0.893060 0.738880 0.507150 -0.562187
O2    O     O_R   0.172250 0.711130 0.488470 -0.545810
C1    C     C_R   0.047069 0.794884 0.503726 0.963806
O3    O     O_R   0.944700 0.520730 0.667600 -0.610807
O4    O     O_R   0.223890 0.492980 0.648920 -0.602201
C2    C     C_R   0.106788 0.505164 0.710053 0.836004
Zn1   Zn    Zn3+2 0.813580 0.518530 0.512470 1.182684
Zn2   Zn    Zn3+2 0.186420 0.481470 0.487530 1.172389
O5    O     O_R   0.827750 0.288870 0.511530 -0.541463
O6    O     O_R   0.106940 0.261120 0.492850 -0.628391
O7    O     O_R   0.776110 0.507020 0.351080 -0.570718
O8    O     O_R   0.055300 0.479270 0.332400 -0.566979
C3    C     C_R   0.958097 0.205977 0.508386 0.807178
C4    C     C_R   0.891915 0.488425 0.289661 0.853098
C5    C     C_R   0.803645 0.277757 0.006105 -0.187067
H1    H     H_    0.020570 0.293006 0.146311 0.196948
H2    H     H_    0.587451 0.169620 0.814928 0.194385
H3    H     H_    0.858758 0.189977 0.959587 0.165539
C6    C     C_R   0.828439 0.454579 0.170146 -0.072586
C7    C     C_R   0.077962 0.603038 0.897501 -0.214182
C8    C     C_R   0.141218 0.624354 0.012258 -0.198133
C9    C     C_R   0.294543 0.559262 0.061481 0.280610
C10   C     C_R   0.389504 0.475557 0.992310 -0.026694
C11   C     C_R   0.307717 0.431131 0.880416 0.035986
C12   C     C_R   0.563402 0.436245 0.028797 0.114688
C13   C     C_R   0.635067 0.323555 0.965573 0.147587
C14   C     C_R   0.537064 0.258517 0.863392 -0.194709
C15   C     C_R   0.376111 0.313322 0.820238 -0.141680
C16   C     C_R   0.671287 0.512471 0.123616 -0.177792
C17   C     C_R   0.898042 0.339479 0.110467 -0.171835
C18   C     C_R   0.160928 0.507569 0.831266 -0.096262
H4    H     H_    0.631207 0.612679 0.166463 0.175067
H5    H     H_    0.963562 0.660949 0.860486 0.211842
H6    H     H_    0.068529 0.689288 0.063380 0.182394
H7    H     H_    0.305114 0.261363 0.739805 0.169848
C19   C     C_2   0.070632 0.959226 0.506479 -0.447994
H8    H     H_    0.177562 0.006385 0.469717 0.217983
C20   C     C_2   0.947563 0.046988 0.534302 0.112290
N1    N     N_2   0.434800 0.456690 0.470850 0.307536
N2    N     N_2   0.565200 0.543310 0.529150 0.271093
N3    N     N_R   0.822057 0.992943 0.599316 0.244004
O9    O     O_R   0.661271 0.030430 0.574542 -0.302661
O10   O     O_R   0.874087 0.923528 0.691571 -0.394871
F1    F     F_    0.479524 0.323040 0.427602 -0.508515
F2    F     F_    0.520706 0.669674 0.581999 -0.518184
N4    N     N_R   0.335148 0.557060 0.181391 0.174313
O11   O     O_R   0.372356 0.426393 0.227066 -0.346558
O12   O     O_R   0.311609 0.677672 0.244222 -0.388993

loop_
_geom_bond_atom_site_label_1
_geom_bond_atom_site_label_2
_geom_bond_distance
_ccdc_geom_bond_type
C5    H3    1.083829 S    
C10   C11   1.405788 A    
N1    F1    1.335366 S    
Zn2   N1    2.019957 S    
O4    Zn2   1.923239 S    
N3    O9    1.301372 A    
Zn2   O8    1.958750 S    
Zn1   N2    2.019957 S    
C19   C20   1.347766 D    
O2    C1    1.291907 A    
C13   C14   1.391906 A    
C11   C18   1.405861 A    
C8    C9    1.396423 A    
Zn1   O7    1.923240 S    
N3    O10   1.301938 A    
C3    C20   1.413447 S    
O4    C2    1.297431 A    
C1    C19   1.405194 S    
C5    C17   1.394305 A    
O3    Zn1   1.958749 S    
C7    H5    1.083603 S    
Zn2   O6    1.954198 S    
C19   H8    1.087987 S    
C9    N4    1.431127 S    
O8    C4    1.290530 A    
C2    C18   1.449578 S    
C16   H4    1.080681 S    
C10   C12   1.414902 A    
C12   C16   1.389968 A    
N2    F2    1.335286 S    
O7    C4    1.298317 A    
N4    O12   1.301458 A    
H1    C17   1.082786 S    
H2    C14   1.084305 S    
N1    N2    1.284610 D    
C7    C8    1.383743 A    
C20   N3    1.444833 S    
O3    C2    1.289912 A    
C14   C15   1.388168 A    
Zn1   O5    1.978357 S    
O5    C3    1.289390 A    
N4    O11   1.299256 A    
C5    C13   1.403882 A    
C8    H6    1.083135 S    
C12   C13   1.420001 A    
O1    Zn1   1.954197 S    
C6    C17   1.400701 A    
C4    C6    1.447838 S    
O6    C3    1.279215 A    
C9    C10   1.429224 A    
O2    Zn2   1.978356 S    
C11   C15   1.415511 A    
C15   H7    1.082160 S    
O1    C1    1.275470 A    
C7    C18   1.400460 A    
C6    C16   1.383902 A    
