data_mof_unit_pretest_656.cif
_audit_creation_date              2012-12-10T19:52:24-0500
_audit_creation_method            fapswitch 2.2
_symmetry_space_group_name_H-M    P1
_symmetry_Int_Tables_number       1
_space_group_crystal_system       triclinic
_cell_length_a                    15.049732
_cell_length_b                    14.242327
_cell_length_c                    10.70036
_cell_angle_alpha                 87.767108
_cell_angle_beta                  94.211407
_cell_angle_gamma                 87.795086
_cell_volume                      2283.65285104

loop_
_atom_site_label
_atom_site_type_symbol
_atom_type_description
_atom_site_fract_x
_atom_site_fract_y
_atom_site_fract_z
_atom_type_partial_charge
C1    C     C_R   0.328578 0.501369 0.510254 0.895170
C2    C     C_R   0.903017 0.578876 0.451005 -0.123235
C3    C     C_R   0.822553 0.425741 0.562056 -0.035921
C4    C     C_R   0.810795 0.571809 0.431342 0.008278
C5    C     C_R   0.769405 0.496069 0.491448 -0.238297
C6    C     C_R   0.953060 0.513066 0.529713 0.077594
C7    C     C_R   0.448679 0.114276 0.394667 0.278909
C8    C     C_R   0.418512 0.896546 0.452464 0.261512
C9    C     C_R   0.496892 0.501969 0.257723 0.858627
C10   C     C_R   0.447847 0.213447 0.406296 0.454681
C11   C     C_R   0.424809 0.796783 0.450093 0.413509
C12   C     C_3   0.592223 0.448132 0.946749 0.898566
C13   C     C_R   0.547728 0.194899 0.588297 -0.206792
C14   C     C_R   0.574026 0.795118 0.538083 -0.166235
C15   C     C_R   0.537057 0.096237 0.592055 0.421493
C16   C     C_R   0.576503 0.893527 0.513365 0.377513
C17   C     C_R   0.492559 0.053672 0.489199 -0.122980
C18   C     C_R   0.496077 0.946956 0.480241 -0.123228
C19   C     C_R   0.672375 0.498406 0.495427 0.849256
C20   C     C_R   0.502119 0.498458 0.743264 0.878440
C21   C     C_3   0.478018 0.604350 0.062954 -0.449648
C22   C     C_3   0.425200 0.440107 0.067138 -0.394172
C23   C     C_R   0.095684 0.593704 0.549835 -0.285602
C24   C     C_3   0.492665 0.601250 0.923633 -0.457237
C25   C     C_3   0.422475 0.443330 0.923658 -0.494685
C26   C     C_3   0.593195 0.473674 0.088778 -0.540426
C27   C     C_3   0.498138 0.504738 0.122157 0.118635
C28   C     C_3   0.503336 0.496794 0.881393 0.103169
C29   C     C_2   0.790752 0.332907 0.599616 0.406497
C30   C     C_2   0.760316 0.639514 0.340417 0.422203
C31   C     C_3   0.453973 0.072514 0.192153 0.131874
C32   C     C_3   0.408427 0.011305 0.095794 -0.849262
C33   C     C_3   0.281039 0.934957 0.517909 0.109728
C34   C     C_R   0.096531 0.424475 0.532169 -0.280626
C35   C     C_3   0.200126 0.001765 0.490550 -0.796257
C36   C     C_3   0.310402 0.265269 0.310680 0.237412
C37   C     C_3   0.270504 0.251357 0.177985 -0.915772
C38   C     C_3   0.338787 0.759703 0.276001 0.152391
C39   C     C_3   0.271381 0.690048 0.228239 -0.822093
C40   C     C_2   0.615697 0.234629 0.674174 0.515070
C41   C     C_2   0.648689 0.745013 0.613736 0.541897
C42   C     C_3   0.513997 0.003893 0.766006 0.119226
C43   C     C_3   0.560714 0.933681 0.862488 -0.791754
C44   C     C_3   0.691461 0.958472 0.419650 0.156965
C45   C     C_R   0.188236 0.590613 0.552665 0.441225
C46   C     C_3   0.780601 0.003748 0.443805 -0.707762
C47   C     C_3   0.747718 0.446398 0.926462 0.100190
C48   C     C_3   0.820552 0.508543 0.883602 -0.782316
C49   C     C_3   0.616060 0.285864 0.025855 0.021087
C50   C     C_3   0.617145 0.184554 0.986952 -0.764068
C51   C     C_3   0.253601 0.666225 0.714515 0.149108
C52   C     C_3   0.292443 0.757965 0.756046 -0.878261
C53   C     C_3   0.241515 0.305303 0.681784 0.144236
C54   C     C_3   0.313929 0.227690 0.704341 -0.868447
C55   C     C_R   0.188408 0.420146 0.539321 0.390936
C56   C     C_R   0.234195 0.504389 0.533100 -0.303565
C57   C     C_R   0.049804 0.511096 0.536078 -0.009224
C58   C     C_R   0.911997 0.439876 0.589039 -0.178803
H1    H     H_    0.522246 0.656839 0.106638 0.190513
H2    H     H_    0.625270 0.420773 0.157797 0.115904
H3    H     H_    0.060115 0.659945 0.561985 0.174994
H4    H     H_    0.062255 0.359232 0.524330 0.163998
H5    H     H_    0.951653 0.389109 0.649881 0.173850
H6    H     H_    0.936513 0.633202 0.401140 0.174448
H7    H     H_    0.742141 0.299075 0.539066 0.087197
H8    H     H_    0.694251 0.624253 0.300995 0.060607
H9    H     H_    0.521659 0.040525 0.219168 0.103740
H10   H     H_    0.460062 0.144104 0.149025 0.159694
H11   H     H_    0.336546 0.031962 0.079147 0.262699
H12   H     H_    0.437460 0.366469 0.103123 0.225938
H13   H     H_    0.439632 0.020255 0.006508 0.202994
H14   H     H_    0.415287 0.936287 0.128716 0.235769
H15   H     H_    0.314822 0.952715 0.609628 0.103598
H16   H     H_    0.256873 0.862391 0.523470 0.222374
H17   H     H_    0.163460 0.984304 0.401115 0.262882
H18   H     H_    0.154886 0.995381 0.567610 0.207538
H19   H     H_    0.221381 0.075351 0.482734 0.252152
H20   H     H_    0.282008 0.333445 0.338263 0.195818
H21   H     H_    0.287398 0.209146 0.374888 0.161635
H22   H     H_    0.295819 0.184619 0.141977 0.287451
H23   H     H_    0.407867 0.627199 0.074973 0.186964
H24   H     H_    0.196829 0.249287 0.178144 0.223164
H25   H     H_    0.286765 0.310237 0.113965 0.238293
H26   H     H_    0.401992 0.746792 0.230154 0.104799
H27   H     H_    0.311417 0.831681 0.248230 0.177836
H28   H     H_    0.207865 0.700882 0.273447 0.270428
H29   H     H_    0.258030 0.700433 0.125070 0.187389
H30   H     H_    0.297778 0.616893 0.250088 0.243061
H31   H     H_    0.616249 0.308758 0.688755 0.148442
H32   H     H_    0.635603 0.684974 0.673904 0.093220
H33   H     H_    0.462781 0.965589 0.710877 0.105823
H34   H     H_    0.358726 0.463558 0.096557 0.159889
H35   H     H_    0.479458 0.061004 0.813698 0.109956
H36   H     H_    0.604325 0.970937 0.930791 0.259713
H37   H     H_    0.510843 0.894856 0.913220 0.187260
H38   H     H_    0.602007 0.881710 0.814950 0.271272
H39   H     H_    0.646634 0.008993 0.360718 0.083245
H40   H     H_    0.702489 0.893185 0.367727 0.173319
H41   H     H_    0.827737 0.954770 0.501389 0.277777
H42   H     H_    0.809232 0.020649 0.353275 0.184918
H43   H     H_    0.771334 0.069716 0.494312 0.261988
H44   H     H_    0.753672 0.377889 0.880990 0.229289
H45   H     H_    0.435004 0.639055 0.870867 0.196166
H46   H     H_    0.758856 0.435374 0.029919 0.115238
H47   H     H_    0.820815 0.574317 0.936066 0.252977
H48   H     H_    0.886592 0.470968 0.901079 0.212723
H49   H     H_    0.808594 0.527224 0.781979 0.274093
H50   H     H_    0.566138 0.290687 0.096566 0.164928
H51   H     H_    0.683637 0.298642 0.069053 0.132014
H52   H     H_    0.680598 0.166535 0.945738 0.303332
H53   H     H_    0.613849 0.136712 0.070726 0.168833
H54   H     H_    0.559126 0.173388 0.920097 0.262953
H55   H     H_    0.303712 0.608109 0.740867 0.116269
H56   H     H_    0.359251 0.479593 0.884059 0.154095
H57   H     H_    0.193119 0.654981 0.766712 0.122207
H58   H     H_    0.242003 0.816607 0.736799 0.241425
H59   H     H_    0.310896 0.753136 0.858563 0.201628
H60   H     H_    0.352932 0.772427 0.706147 0.252352
H61   H     H_    0.177453 0.277853 0.710246 0.145751
H62   H     H_    0.260887 0.364255 0.742649 0.113171
H63   H     H_    0.379407 0.255673 0.684404 0.266439
H64   H     H_    0.317504 0.201538 0.803805 0.203855
H65   H     H_    0.299493 0.168320 0.642863 0.244260
H66   H     H_    0.553240 0.640222 0.904197 0.208916
H67   H     H_    0.422744 0.370450 0.889723 0.216980
H68   H     H_    0.637057 0.534185 0.103431 0.167275
N1    N     N_R   0.499980 0.252470 0.500000 -0.215675
N2    N     N_R   0.499980 0.747530 0.500000 -0.211224
O1    O     O_R   0.369070 0.579480 0.500010 -0.513906
O2    O     O_2   0.792548 0.712917 0.306970 -0.583468
O3    O     O_3   0.400968 0.077210 0.294722 -0.536159
O4    O     O_3   0.337952 0.944567 0.419829 -0.543216
O5    O     O_3   0.404293 0.271656 0.312351 -0.611841
O6    O     O_3   0.351928 0.747989 0.407719 -0.530308
O7    O     O_2   0.677495 0.184956 0.722865 -0.510008
O8    O     O_2   0.725183 0.770290 0.611612 -0.532103
O9    O     O_3   0.578463 0.041786 0.691389 -0.493070
O10   O     O_3   0.656022 0.937819 0.535514 -0.499371
O11   O     O_3   0.664011 0.491327 0.890152 -0.674049
O12   O     O_R   0.369070 0.420520 0.500010 -0.571660
O13   O     O_3   0.592304 0.349059 0.921387 -0.651687
O14   O     O_3   0.232695 0.670716 0.583202 -0.556460
O15   O     O_3   0.232896 0.333162 0.553023 -0.625235
O16   O     O_R   0.499990 0.579480 0.314790 -0.633973
O17   O     O_R   0.499990 0.420520 0.314790 -0.577478
O18   O     O_R   0.630940 0.579480 0.499990 -0.634831
O19   O     O_R   0.630940 0.420520 0.499990 -0.661228
O20   O     O_R   0.500020 0.579480 0.685200 -0.648649
O21   O     O_R   0.500020 0.420520 0.685200 -0.639030
O22   O     O_2   0.823737 0.290028 0.693902 -0.559822
Zn1   Zn    Zn3+2 0.500010 0.606140 0.500000 0.969290
Zn2   Zn    Zn3+2 0.500010 0.393860 0.500000 0.954711

loop_
_geom_bond_atom_site_label_1
_geom_bond_atom_site_label_2
_ccdc_geom_bond_type
C7    C10   A    
C55   C56   A    
C23   C45   A    
C42   H35   S    
C6    C58   A    
O20   Zn1   S    
C39   H29   S    
C46   H41   S    
C36   O5    S    
C53   H62   S    
C32   H14   S    
C53   C54   S    
C20   O21   A    
C25   C28   S    
C31   H9    S    
C35   H17   S    
C26   C27   S    
C51   H55   S    
C12   C28   S    
C36   C37   S    
C1    C56   S    
C24   H66   S    
O1    Zn1   S    
O16   Zn1   S    
C1    O1    A    
C38   C39   S    
C48   H49   S    
C50   H52   S    
C43   H36   S    
C14   N2    A    
C12   O13   S    
C23   C57   A    
C42   H33   S    
C26   H68   S    
C3    C29   S    
C25   H67   S    
C13   C40   S    
C31   O3    S    
C29   O22   D    
C48   H47   S    
C44   H40   S    
C48   H48   S    
C47   C48   S    
C45   C56   A    
C2    H6    S    
C7    C17   A    
C22   C25   S    
C49   O13   S    
C8    O4    S    
C34   C57   A    
C43   H37   S    
C10   O5    S    
C40   H31   S    
C49   H50   S    
O12   Zn2   S    
C7    O3    S    
C52   H59   S    
C41   H32   S    
C54   H64   S    
C34   C55   A    
C47   H44   S    
C42   O9    S    
C6    C57   S    
C2    C6    A    
C39   H30   S    
C40   O7    D    
C9    O16   A    
C44   C46   S    
C43   H38   S    
C32   H13   S    
C52   H58   S    
C31   H10   S    
C46   H43   S    
C35   H18   S    
C19   O18   A    
C55   O15   S    
C38   H27   S    
C51   C52   S    
C11   O6    S    
C20   C28   S    
C30   O2    D    
C35   H19   S    
C8    C18   A    
C12   C26   S    
C53   O15   S    
C2    C4    A    
C37   H22   S    
N1    Zn2   S    
C44   H39   S    
N2    Zn1   S    
C31   C32   S    
C50   H54   S    
C17   C18   S    
C12   O11   S    
C30   H8    S    
C1    O12   A    
C14   C41   S    
C29   H7    S    
C33   O4    S    
C33   H15   S    
C54   H63   S    
C21   H23   S    
C22   C27   S    
C13   C15   A    
C45   O14   S    
C14   C16   A    
C37   H24   S    
O21   Zn2   S    
C54   H65   S    
C42   C43   S    
C10   N1    A    
C34   H4    S    
C9    C27   S    
C49   H51   S    
C51   O14   S    
C58   H5    S    
C15   C17   A    
C46   H42   S    
C44   O10   S    
C47   H46   S    
C38   H26   S    
C16   O10   S    
C24   C28   S    
C4    C5    A    
C3    C5    A    
C36   H21   S    
C53   H61   S    
C21   H1    S    
C32   H11   S    
C5    C19   S    
C51   H57   S    
C24   H45   S    
O19   Zn2   S    
C36   H20   S    
C25   H56   S    
C20   O20   A    
C8    C11   A    
C9    O17   A    
C50   H53   S    
C33   C35   S    
C11   N2    A    
C38   O6    S    
C21   C27   S    
C19   O19   A    
O17   Zn2   S    
O18   Zn1   S    
C13   N1    A    
C3    C58   A    
C33   H16   S    
C23   H3    S    
C16   C18   A    
C49   C50   S    
C21   C24   S    
C47   O11   S    
C22   H34   S    
C37   H25   S    
C39   H28   S    
C26   H2    S    
C22   H12   S    
C41   O8    D    
C4    C30   S    
C15   O9    S    
C52   H60   S    
