data_mof_unit_pretest_801.cif
_audit_creation_date              2012-12-11T15:15:38-0500
_audit_creation_method            fapswitch 2.2
_symmetry_space_group_name_H-M    P1
_symmetry_Int_Tables_number       1
_space_group_crystal_system       triclinic
_cell_length_a                    20.505819
_cell_length_b                    22.865245
_cell_length_c                    6.929123
_cell_angle_alpha                 90.000104
_cell_angle_beta                  86.882667
_cell_angle_gamma                 90.000055
_cell_volume                      3244.05443253

loop_
_atom_site_label
_atom_site_type_symbol
_atom_type_description
_atom_site_fract_x
_atom_site_fract_y
_atom_site_fract_z
_atom_type_partial_charge
O1    O     O_R   0.387100 0.552640 0.378490 -0.534668
O2    O     O_R   0.612900 0.052640 0.621510 -0.534669
O3    O     O_R   0.249610 0.559600 0.072250 -0.546083
O4    O     O_R   0.750390 0.059600 0.927750 -0.546084
O5    O     O_R   0.249120 0.447360 0.902040 -0.544134
O6    O     O_R   0.750880 0.947360 0.097960 -0.544150
C1    C     C_R   0.227844 0.574313 0.244583 0.710420
C2    C     C_R   0.772156 0.074313 0.755417 0.710416
O7    O     O_R   0.386610 0.559560 0.048860 -0.537616
O8    O     O_R   0.613390 0.059560 0.951140 -0.537616
O9    O     O_R   0.387100 0.447320 0.878470 -0.536466
O10   O     O_R   0.612900 0.947320 0.121530 -0.536456
C3    C     C_R   0.407963 0.574761 0.214328 0.691874
C4    C     C_R   0.592037 0.074761 0.785673 0.691876
O11   O     O_R   0.249120 0.552680 0.402050 -0.543427
O12   O     O_R   0.750880 0.052680 0.597950 -0.543428
O13   O     O_3   0.318110 0.463180 0.223790 -0.374023
O14   O     O_3   0.681890 0.963180 0.776210 -0.374019
V1    V     V_3+5 0.318110 0.506830 0.948930 1.419126
V2    V     V_3+5 0.681890 0.006830 0.051070 1.419121
O15   O     O_R   0.386610 0.440400 0.548840 -0.548696
O16   O     O_R   0.613390 0.940400 0.451160 -0.548688
C5    C     C_R   0.407887 0.425103 0.714228 0.769195
C6    C     C_R   0.592112 0.925104 0.285772 0.769202
O17   O     O_R   0.249610 0.440440 0.572240 -0.546842
O18   O     O_R   0.750390 0.940440 0.427760 -0.546828
C7    C     C_R   0.227427 0.426086 0.744533 0.703566
C8    C     C_R   0.772574 0.926086 0.255467 0.703568
V3    V     V_3+5 0.318110 0.493170 0.448930 1.403939
V4    V     V_3+5 0.681890 0.993170 0.551070 1.403961
O19   O     O_3   0.318110 0.536820 0.723940 -0.369428
O20   O     O_3   0.681890 0.036820 0.276060 -0.369430
C9    C     C_R   0.174329 0.382417 0.761565 -0.043043
C10   C     C_R   0.825672 0.882418 0.238435 -0.043045
C11   C     C_R   0.147640 0.359522 0.594876 -0.178411
C12   C     C_R   0.852366 0.859528 0.405124 -0.178426
C13   C     C_R   0.096685 0.319150 0.610178 -0.122254
C14   C     C_R   0.903321 0.819157 0.389823 -0.122245
C15   C     C_R   0.071188 0.300970 0.792817 0.142007
C16   C     C_R   0.928814 0.800972 0.207184 0.142005
C17   C     C_R   0.098853 0.322595 0.959112 -0.138405
C18   C     C_R   0.901145 0.822593 0.040890 -0.138402
C19   C     C_R   0.149693 0.363198 0.943981 -0.172460
C20   C     C_R   0.850305 0.863195 0.056020 -0.172448
C21   C     C_R   0.884221 0.198213 0.886479 0.452379
C22   C     C_R   0.115781 0.698214 0.113521 0.452380
C23   C     C_R   0.838501 0.152580 0.901801 -0.266903
C24   C     C_R   0.161500 0.652580 0.098199 -0.266904
C25   C     C_R   0.854057 0.133578 0.558518 -0.170630
C26   C     C_R   0.145944 0.633579 0.441482 -0.170629
C27   C     C_R   0.901829 0.176965 0.543855 -0.216091
C28   C     C_R   0.098172 0.676967 0.456145 -0.216091
C29   C     C_R   0.918678 0.208335 0.707554 0.071749
C30   C     C_R   0.081324 0.708336 0.292445 0.071748
C31   C     C_2   0.017063 0.258400 0.815160 -0.156763
C32   C     C_2   0.982939 0.758402 0.184841 -0.156760
C33   C     C_2   0.971410 0.252199 0.684598 -0.183133
C34   C     C_2   0.028594 0.752202 0.315401 -0.183131
C35   C     C_R   0.822656 0.120314 0.738298 -0.100967
C36   C     C_R   0.177345 0.620315 0.261702 -0.100968
H1    H     H_    0.166062 0.372737 0.452067 0.123487
H2    H     H_    0.833947 0.872747 0.547933 0.123480
H3    H     H_    0.814720 0.143192 0.041788 0.133250
H4    H     H_    0.185280 0.643192 0.958211 0.133249
H5    H     H_    0.842502 0.109856 0.429457 0.140353
H6    H     H_    0.157499 0.609858 0.570544 0.140354
H7    H     H_    0.974013 0.277767 0.552470 0.126755
H8    H     H_    0.025991 0.777771 0.447527 0.126754
H9    H     H_    0.080451 0.308609 0.101208 0.103442
H10   H     H_    0.919544 0.808603 0.898794 0.103440
H11   H     H_    0.169498 0.379588 0.075206 0.118543
H12   H     H_    0.830495 0.879581 0.924795 0.118532
H13   H     H_    0.014494 0.231792 0.945167 0.167194
H14   H     H_    0.985508 0.731792 0.054837 0.167193
H15   H     H_    0.078280 0.301685 0.478690 0.101187
H16   H     H_    0.921729 0.801696 0.521312 0.101187
H17   H     H_    0.926701 0.185345 0.404676 0.167667
H18   H     H_    0.073301 0.685348 0.595324 0.167668
C37   C     C_R   0.575858 0.359527 0.644442 0.180937
C38   C     C_R   0.424139 0.859529 0.355534 0.180939
H19   H     H_    0.532540 0.443735 0.605849 0.157630
H20   H     H_    0.467457 0.943736 0.394133 0.157631
H21   H     H_    0.667623 0.275526 0.660249 0.160528
H22   H     H_    0.332374 0.775527 0.339706 0.160528
C39   C     C_R   0.461240 0.381282 0.712224 -0.162087
C40   C     C_R   0.538758 0.881283 0.287775 -0.162100
C41   C     C_R   0.473900 0.094475 0.806930 -0.147529
C42   C     C_R   0.526101 0.594475 0.193097 -0.147533
C43   C     C_R   0.420045 0.131025 0.797648 -0.131779
C44   C     C_R   0.579955 0.631026 0.202392 -0.131775
C45   C     C_R   0.428041 0.191123 0.772534 -0.161867
C46   C     C_R   0.571958 0.691124 0.227495 -0.161883
C47   C     C_R   0.490776 0.217129 0.762358 0.093800
C48   C     C_R   0.509223 0.717130 0.237648 0.093789
C49   C     C_R   0.546052 0.178589 0.760785 0.074681
C50   C     C_R   0.453947 0.678590 0.239209 0.074685
C51   C     C_R   0.500620 0.279437 0.741528 -0.052939
C52   C     C_R   0.499379 0.779438 0.258467 -0.052932
C53   C     C_R   0.565145 0.300004 0.691946 0.046571
C54   C     C_R   0.434854 0.800006 0.308034 0.046574
C55   C     C_R   0.618009 0.260929 0.690450 -0.144184
C56   C     C_R   0.381989 0.760930 0.309518 -0.144187
C57   C     C_R   0.608853 0.201874 0.729101 -0.203783
C58   C     C_R   0.391145 0.701875 0.270874 -0.203781
C59   C     C_R   0.449698 0.322603 0.768660 0.312576
C60   C     C_R   0.550301 0.822604 0.231343 0.312576
C61   C     C_R   0.523789 0.398675 0.648324 -0.253727
C62   C     C_R   0.476208 0.898676 0.351662 -0.253732
C63   C     C_R   0.537138 0.117113 0.785758 -0.092796
C64   C     C_R   0.462861 0.617113 0.214245 -0.092795
H23   H     H_    0.466201 0.047862 0.825248 0.120907
H24   H     H_    0.533800 0.547862 0.174789 0.120908
H25   H     H_    0.384093 0.215465 0.752423 0.175808
H26   H     H_    0.615904 0.715467 0.247614 0.175812
H27   H     H_    0.371412 0.112435 0.806513 0.138482
H28   H     H_    0.628588 0.612436 0.193544 0.138486
H29   H     H_    0.651674 0.174101 0.727194 0.106151
H30   H     H_    0.348324 0.674102 0.272771 0.106150
I1    I     I_    0.668960 0.394784 0.556865 -0.500007
I2    I     I_    0.331036 0.894787 0.443090 -0.500010
O21   O     O_3   0.388778 0.309258 0.852113 -0.592136
C65   C     C_3   0.392376 0.309146 0.055217 0.069384
H31   H     H_    0.410418 0.352027 0.107474 0.138627
H32   H     H_    0.425523 0.273759 0.101174 0.130764
C66   C     C_3   0.324118 0.298340 0.148033 -0.301573
H33   H     H_    0.290830 0.333896 0.105453 0.200916
H34   H     H_    0.305048 0.256120 0.094939 0.198132
C67   C     C_3   0.324864 0.296262 0.368091 -0.787039
H35   H     H_    0.357249 0.260512 0.414111 0.229546
H36   H     H_    0.274672 0.288169 0.430663 0.226990
H37   H     H_    0.342356 0.338486 0.424698 0.246178
O22   O     O_3   0.611223 0.809260 0.147894 -0.592137
C68   C     C_3   0.607623 0.809134 0.944791 0.069390
H38   H     H_    0.589530 0.851995 0.892510 0.138566
H39   H     H_    0.574517 0.773713 0.898857 0.130799
C69   C     C_3   0.675894 0.798391 0.851972 -0.301546
H40   H     H_    0.709131 0.833999 0.894459 0.200926
H41   H     H_    0.695031 0.756208 0.905153 0.198144
C70   C     C_3   0.675140 0.796262 0.631921 -0.787046
H42   H     H_    0.642826 0.760449 0.585998 0.229527
H43   H     H_    0.725344 0.788237 0.569342 0.226990
H44   H     H_    0.657560 0.838441 0.575229 0.246170
O23   O     O_3   0.897529 0.231263 0.047416 -0.591428
C71   C     C_3   0.843284 0.266883 0.104102 0.047118
H45   H     H_    0.849511 0.280939 0.255508 0.154311
H46   H     H_    0.795911 0.243000 0.105697 0.116477
C72   C     C_3   0.840804 0.321651 0.976676 -0.339353
H47   H     H_    0.887879 0.345621 0.980521 0.211187
H48   H     H_    0.833445 0.308780 0.824752 0.197845
C73   C     C_3   0.785102 0.362098 0.045552 -0.731193
H49   H     H_    0.737467 0.339172 0.039799 0.246904
H50   H     H_    0.784441 0.401148 0.950429 0.249398
H51   H     H_    0.791865 0.376788 0.195945 0.245879
O24   O     O_3   0.102473 0.731264 0.952583 -0.591427
C74   C     C_3   0.156719 0.766883 0.895894 0.047116
H52   H     H_    0.150492 0.780937 0.744488 0.154311
H53   H     H_    0.204091 0.742999 0.894300 0.116476
C75   C     C_3   0.159200 0.821651 0.023317 -0.339350
H54   H     H_    0.112126 0.845623 0.019470 0.211186
H55   H     H_    0.166558 0.808781 0.175243 0.197846
C76   C     C_3   0.214903 0.862097 0.954440 -0.731190
H56   H     H_    0.262538 0.839170 0.960197 0.246901
H57   H     H_    0.215564 0.901148 0.049560 0.249401
H58   H     H_    0.208142 0.876785 0.804045 0.245879

loop_
_geom_bond_atom_site_label_1
_geom_bond_atom_site_label_2
_ccdc_geom_bond_type
C4    C63   S    
V4    O20   S    
C43   H27   S    
C74   H53   S    
H22   C56   S    
C72   H47   S    
O4    C2    A    
V1    O19   S    
C67   H35   S    
H19   C61   S    
C76   H56   S    
C15   C17   A    
C14   H16   S    
C7    C9    S    
C60   O22   S    
O9    V1    S    
C25   H5    S    
O16   C6    A    
C37   C53   A    
C72   H48   S    
O3    C1    A    
C71   C72   S    
C2    C35   S    
C23   H3    S    
C70   H44   S    
C12   H2    S    
C24   H4    S    
C41   H23   S    
C48   C52   A    
O12   V4    S    
O23   C71   S    
C18   H10   S    
O13   V3    S    
C28   H18   S    
C6    C40   S    
O7    C3    A    
C75   C76   S    
C51   C53   A    
O5    C7    A    
O7    V1    S    
O6    C8    A    
C28   C30   A    
O22   C68   S    
C16   C32   S    
C73   H51   S    
C37   I1    S    
C66   C67   S    
C26   C28   A    
O3    V1    S    
C52   C60   A    
O14   V4    S    
H20   C62   S    
C43   C45   A    
H21   C55   S    
C10   C12   A    
C24   C36   A    
C42   C64   A    
C16   C18   A    
C66   H33   S    
C13   H15   S    
C8    C10   S    
C2    O12   A    
C38   C54   A    
C74   C75   S    
C75   H55   S    
C17   C19   A    
O10   V2    S    
C57   H29   S    
C18   C20   A    
C33   H7    S    
C69   C70   S    
C39   C59   A    
C46   C48   A    
C76   H57   S    
C49   C57   A    
O11   V3    S    
C58   H30   S    
C21   C23   A    
O17   V3    S    
C22   O24   S    
C22   C24   A    
C23   C35   A    
C32   H14   S    
C59   O21   S    
C9    C19   A    
C72   C73   S    
C10   C20   A    
C71   H46   S    
C49   C63   A    
O8    V2    S    
C29   C33   S    
C69   H40   S    
C1    O11   A    
C25   C27   A    
O15   V3    S    
C45   H25   S    
C27   C29   A    
C31   H13   S    
C48   C50   A    
C27   H17   S    
C3    C64   S    
C66   H34   S    
C45   C47   A    
C44   C46   A    
C40   C60   A    
C22   C30   A    
O1    V3    S    
O24   C74   S    
C37   C61   A    
C11   H1    S    
C56   C58   A    
C26   H6    S    
O21   C65   S    
C68   C69   S    
C41   C63   A    
C69   H41   S    
C53   C55   A    
C42   C44   A    
O18   V4    S    
C44   H28   S    
C31   C33   D    
O8    C4    A    
C68   H38   S    
C30   C34   S    
C73   H50   S    
C38   I2    S    
O1    C3    A    
C65   H32   S    
C12   C14   A    
C67   H37   S    
C47   C51   A    
C1    C36   S    
C76   H58   S    
C21   O23   S    
C54   C56   A    
V2    O20   S    
C34   H8    S    
C50   C58   A    
O10   C6    A    
C19   H11   S    
O16   V4    S    
C11   C13   A    
V3    O19   S    
O18   C8    A    
C40   C62   A    
C71   H45   S    
C67   H36   S    
C70   H42   S    
O5    V1    S    
C15   C31   S    
O6    V2    S    
C38   C62   A    
C52   C54   A    
C25   C35   A    
C55   C57   A    
O2    V4    S    
C26   C36   A    
C65   C66   S    
O15   C5    A    
C51   C59   A    
C13   C15   A    
C42   H24   S    
C14   C16   A    
C70   H43   S    
C75   H54   S    
C50   C64   A    
O9    C5    A    
C9    C11   A    
C32   C34   D    
C20   H12   S    
O14   V2    S    
O2    C4    A    
C21   C29   A    
O4    V2    S    
O13   V1    S    
C47   C49   A    
C5    C39   S    
C74   H52   S    
C68   H39   S    
C41   C43   A    
C73   H49   S    
C65   H31   S    
C39   C61   A    
C17   H9    S    
C46   H26   S    
O17   C7    A    
