data_mof_unit_pretest_1697.cif
_audit_creation_date              2013-03-05T16:38:30-0500
_audit_creation_method            fapswitch 2.2
_symmetry_space_group_name_H-M    P1
_symmetry_Int_Tables_number       1
_space_group_crystal_system       triclinic
_cell_length_a                    15.994896
_cell_length_b                    14.786627
_cell_length_c                    10.642966
_cell_angle_alpha                 89.769143
_cell_angle_beta                  90.002589
_cell_angle_gamma                 89.995018
_cell_volume                      2517.15341524

loop_
_atom_site_label
_atom_site_type_symbol
_atom_site_description
_atom_site_fract_x
_atom_site_fract_y
_atom_site_fract_z
_atom_type_partial_charge
O1    O     O_R   0.380310 0.575320 0.500020 -0.574837
O2    O     O_R   0.619690 0.424680 0.499980 -0.574837
O3    O     O_R   0.619690 0.575320 0.499980 -0.562359
O4    O     O_R   0.380310 0.424680 0.500020 -0.562359
C1    C     C_R   0.340867 0.500003 0.500026 0.817180
C2    C     C_R   0.659133 0.499997 0.499974 0.817180
O5    O     O_R   0.499980 0.575330 0.316850 -0.573262
O6    O     O_R   0.500020 0.424670 0.683150 -0.573262
O7    O     O_R   0.500020 0.575330 0.683150 -0.561664
O8    O     O_R   0.499980 0.424670 0.316850 -0.561664
C3    C     C_R   0.499978 0.500221 0.258706 0.791953
C4    C     C_R   0.500022 0.499779 0.741294 0.791953
Cu1   Cu    Cu3+1 0.500000 0.589220 0.500000 1.038065
Cu2   Cu    Cu3+1 0.500000 0.410780 0.500000 1.038065
C5    C     C_1   0.251740 0.500007 0.500027 -0.145891
C6    C     C_1   0.748260 0.499993 0.499973 -0.145891
C7    C     C_R   0.502275 0.951431 0.614552 0.223400
C8    C     C_R   0.497725 0.048569 0.385448 0.223400
C9    C     C_R   0.500122 0.952085 0.385405 0.225878
C10   C     C_R   0.499878 0.047915 0.614595 0.225878
C11   C     C_R   0.502600 0.902894 0.499951 -0.286923
C12   C     C_R   0.497400 0.097106 0.500049 -0.286923
C13   C     C_3   0.499957 0.586109 0.039910 -0.080305
C14   C     C_3   0.500042 0.413891 0.960090 -0.080305
C15   C     C_3   0.568682 0.542696 0.957772 -0.155825
C16   C     C_3   0.431318 0.457304 0.042228 -0.155825
C17   C     C_3   0.431287 0.542635 0.957735 -0.168506
C18   C     C_3   0.568712 0.457365 0.042265 -0.168506
H1    H     H_    0.375104 0.577438 0.919931 0.158157
H2    H     H_    0.624896 0.422562 0.080069 0.158157
H3    H     H_    0.499927 0.656670 0.075201 0.203219
H4    H     H_    0.500073 0.343330 0.924799 0.203219
H5    H     H_    0.624836 0.577557 0.919998 0.162503
H6    H     H_    0.375164 0.422443 0.080002 0.162503
C19   C     C_3   0.500012 0.499304 0.877885 -0.017570
C20   C     C_3   0.499988 0.500695 0.122115 -0.017570
C21   C     C_1   0.500906 0.802554 0.499986 0.384199
C22   C     C_1   0.499094 0.197446 0.500014 0.384199
N1    N     N_1   0.500000 0.276710 0.500000 -0.141494
N2    N     N_1   0.500000 0.723290 0.500000 -0.141494
C23   C     C_1   0.823315 0.499993 0.499977 -0.047001
C24   C     C_1   0.176685 0.500007 0.500023 -0.047001
H7    H     H_    0.077009 0.643058 0.538623 0.153139
H8    H     H_    0.922991 0.356942 0.461377 0.153139
H9    H     H_    0.922955 0.643052 0.538601 0.155094
H10   H     H_    0.077044 0.356948 0.461399 0.155095
C25   C     C_R   0.956363 0.580516 0.521726 -0.155517
C26   C     C_R   0.043637 0.419484 0.478273 -0.155517
C27   C     C_R   0.043617 0.580520 0.521740 -0.159312
C28   C     C_R   0.956383 0.419480 0.478260 -0.159312
C29   C     C_R   0.912778 0.499997 0.499987 0.141085
C30   C     C_R   0.087222 0.500003 0.500013 0.141085
N3    N     N_R   0.503187 0.095839 0.731834 0.164519
O9    O     O_R   0.450773 0.161009 0.754880 -0.335386
O10   O     O_R   0.559407 0.075165 0.815537 -0.246633
N4    N     N_R   0.496813 0.904161 0.268166 0.164519
O11   O     O_R   0.549227 0.838991 0.245120 -0.335386
O12   O     O_R   0.440593 0.924835 0.184463 -0.246633
N5    N     N_R   0.498816 0.097162 0.268106 0.165429
O13   O     O_R   0.446008 0.162479 0.247310 -0.328266
O14   O     O_R   0.553386 0.076924 0.182002 -0.243069
N6    N     N_R   0.501184 0.902838 0.731894 0.165429
O15   O     O_R   0.553992 0.837520 0.752690 -0.328266
O16   O     O_R   0.446614 0.923076 0.817998 -0.243069

loop_
_geom_bond_atom_site_label_1
_geom_bond_atom_site_label_2
_geom_bond_distance
_ccdc_geom_bond_type
C9    N4    1.438408 S    
N6    O16   1.301316 A    
C14   H4    1.110332 S    
N6    O15   1.301298 A    
C13   C17   1.545686 S    
C7    N6    1.438405 S    
C17   H1    1.110181 S    
O3    Cu1   1.925411 S    
C26   C30   1.399803 A    
O6    C4    1.273556 A    
C27   C30   1.399802 A    
C7    C10   1.427188 A    
C15   H5    1.110188 S    
C26   C28   1.395630 A    
C28   C29   1.399802 A    
C11   C21   1.483940 S    
N5    O13   1.301298 A    
C25   C27   1.395630 A    
C8    C12   1.417680 A    
Cu1   Cu2   2.638524 S    
C4    C19   1.453725 S    
O5    C3    1.273556 A    
C16   C17   1.546465 S    
O2    C2    1.280018 A    
C15   C19   1.531470 S    
O1    C1    1.280018 A    
O4    C1    1.279993 A    
C18   H2    1.110181 S    
C3    C20   1.453725 S    
C9    C11   1.417648 A    
C23   C29   1.430951 S    
C14   C16   1.545675 S    
C13   C20   1.533513 S    
C21   N2    1.172133 T    
N3    O10   1.301304 A    
O4    Cu2   1.925413 S    
C22   N1    1.172133 T    
O2    Cu2   1.925447 S    
O7    C4    1.274901 A    
H10   C26   1.083562 S    
C1    C5    1.425572 S    
C14   C19   1.533513 S    
N5    O14   1.301316 A    
O8    C3    1.274901 A    
C10   C12   1.417648 A    
C2    C6    1.425572 S    
C13   H3    1.110332 S    
C12   C22   1.483940 S    
C8    N5    1.438405 S    
O5    Cu1   1.960873 S    
C13   C15   1.545675 S    
O1    Cu1   1.925448 S    
N4    O11   1.301300 A    
C18   C20   1.531474 S    
H8    C28   1.083562 S    
C8    C9    1.427188 A    
O8    Cu2   1.959227 S    
H9    C25   1.083562 S    
C16   C20   1.531470 S    
O7    Cu1   1.959226 S    
H7    C27   1.083562 S    
Cu1   N2    1.982445 S    
C25   C29   1.399803 A    
O6    Cu2   1.960872 S    
C17   C19   1.531474 S    
Cu2   N1    1.982445 S    
N3    O9    1.301300 A    
C6    C23   1.200492 T    
C16   H6    1.110188 S    
O3    C2    1.279993 A    
C7    C11   1.417680 A    
C14   C18   1.545686 S    
C5    C24   1.200492 T    
N4    O12   1.301304 A    
C10   N3    1.438408 S    
C15   C18   1.546465 S    
C24   C30   1.430951 S    
