data_mof_unit_pretest_415.cif
_audit_creation_date              2012-12-10T20:34:09-0500
_audit_creation_method            fapswitch 2.2
_symmetry_space_group_name_H-M    P1
_symmetry_Int_Tables_number       1
_space_group_crystal_system       triclinic
_cell_length_a                    9.875287
_cell_length_b                    10.758934
_cell_length_c                    13.591509
_cell_angle_alpha                 90.633291
_cell_angle_beta                  82.80247
_cell_angle_gamma                 89.673109
_cell_volume                      1432.56150085

loop_
_atom_site_label
_atom_site_type_symbol
_atom_type_description
_atom_site_fract_x
_atom_site_fract_y
_atom_site_fract_z
_atom_type_partial_charge
C1    C     C_R   0.499847 0.739586 0.499788 0.872907
C2    C     C_1   0.456838 0.490379 0.789445 -0.171142
C3    C     C_R   0.384629 0.938915 0.488903 0.053769
C4    C     C_R   0.501614 0.870937 0.498206 -0.098290
C5    C     C_R   0.624516 0.934936 0.503880 -0.237544
C6    C     C_R   0.625239 0.063917 0.502824 -0.223496
C7    C     C_R   0.503251 0.129373 0.495551 -0.110789
C8    C     C_R   0.385806 0.063149 0.486642 0.061606
C9    C     C_3   0.237308 0.076081 0.477624 0.302597
C10   C     C_3   0.234692 0.932616 0.482065 -0.213276
C11   C     C_R   0.914070 0.533526 0.584015 0.118874
C12   C     C_R   0.475422 0.498355 0.685753 0.906297
C13   C     C_R   0.942203 0.459475 0.419644 -0.146833
C14   C     C_R   0.085942 0.460388 0.419350 -0.134163
C15   C     C_R   0.056971 0.527174 0.584934 0.037659
C16   C     C_3   0.059161 0.644858 0.643554 0.265551
C17   C     C_3   0.906419 0.659955 0.634888 -0.227221
C18   C     C_R   0.500751 0.260541 0.498521 0.885923
C19   C     C_R   0.524607 0.500610 0.314181 0.890239
C20   C     C_1   0.543652 0.502229 0.210165 -0.196318
C21   C     C_2   0.559113 0.502696 0.018123 -0.169617
C22   C     C_2   0.443920 0.479194 0.980976 -0.168582
C23   C     C_1   0.445973 0.483652 0.877175 -0.014463
C24   C     C_1   0.555749 0.503097 0.122160 0.006072
H1    H     H_    0.349095 0.459356 0.027762 0.157178
H2    H     H_    0.151084 0.429883 0.353555 0.148420
H3    H     H_    0.122158 0.715234 0.601345 0.105229
H4    H     H_    0.889362 0.734102 0.581093 0.132000
H5    H     H_    0.653737 0.523393 0.971347 0.152235
H6    H     H_    0.719444 0.886377 0.509890 0.158419
H7    H     H_    0.720338 0.111431 0.508441 0.162610
H8    H     H_    0.219284 0.119360 0.406210 0.054552
H9    H     H_    0.176912 0.900351 0.552103 0.171947
H10   H     H_    0.899592 0.428019 0.354292 0.147575
N1    N     N_R   0.857130 0.500860 0.500650 -0.095312
N2    N     N_R   0.142770 0.500820 0.500650 -0.113199
O1    O     O_R   0.385310 0.683210 0.499990 -0.619684
O2    O     O_R   0.614650 0.683240 0.500000 -0.631560
O3    O     O_R   0.368820 0.499950 0.640340 -0.594871
O4    O     O_R   0.598170 0.499990 0.640350 -0.620902
O5    O     O_R   0.385350 0.316760 0.500000 -0.587179
O6    O     O_R   0.614690 0.316790 0.500010 -0.631026
O7    O     O_R   0.401830 0.500010 0.359650 -0.624887
O8    O     O_R   0.631180 0.500050 0.359660 -0.614020
Zn1   Zn    Zn3+2 0.346870 0.499980 0.499990 0.958067
Zn2   Zn    Zn3+2 0.653130 0.500020 0.500010 0.932996
O9    O     O_3   0.095307 0.635855 0.741974 -0.591748
C25   C     C_3   0.072462 0.518031 0.786725 0.144305
H11   H     H_    0.153948 0.451554 0.756601 0.180797
H12   H     H_    0.971934 0.478511 0.775281 0.113697
C26   C     C_3   0.075212 0.531898 0.897929 -0.858015
H13   H     H_    0.171759 0.576206 0.913085 0.272678
H14   H     H_    0.988045 0.590717 0.930932 0.243547
H15   H     H_    0.067291 0.439112 0.933085 0.209064
C27   C     C_3   0.810507 0.672687 0.734306 -0.316620
C28   C     C_3   0.699606 0.772130 0.728697 -0.356143
C29   C     C_3   0.621976 0.801565 0.830649 -0.891274
H16   H     H_    0.575260 0.716355 0.864605 0.271593
H17   H     H_    0.691897 0.841744 0.880350 0.260557
H18   H     H_    0.539668 0.870227 0.823025 0.263744
H19   H     H_    0.746793 0.859501 0.698306 0.220761
H20   H     H_    0.625988 0.739621 0.679275 0.249269
H21   H     H_    0.762506 0.582396 0.756109 0.203979
H22   H     H_    0.868960 0.702715 0.794821 0.247128
O10   O     O_3   0.167323 0.132712 0.563684 -0.575544
C30   C     C_3   0.028084 0.146076 0.551759 0.111303
H23   H     H_    0.982513 0.055283 0.534057 0.112641
H24   H     H_    0.015436 0.212919 0.491724 0.143137
C31   C     C_3   0.950535 0.195956 0.647918 -0.811206
H25   H     H_    0.997017 0.283929 0.669882 0.242167
H26   H     H_    0.842353 0.214141 0.637971 0.211556
H27   H     H_    0.954226 0.127119 0.707801 0.251041
C32   C     C_3   0.192877 0.865735 0.389401 -0.443719
C33   C     C_3   0.293032 0.880373 0.293970 -0.307426
C34   C     C_3   0.243376 0.809830 0.207427 -0.867874
H28   H     H_    0.234922 0.709057 0.224011 0.264745
H29   H     H_    0.142329 0.846184 0.192967 0.257896
H30   H     H_    0.317314 0.821665 0.139644 0.252166
H31   H     H_    0.303984 0.980098 0.274546 0.204149
H32   H     H_    0.395001 0.842700 0.304845 0.224740
H33   H     H_    0.181991 0.765152 0.406147 0.234822
H34   H     H_    0.090417 0.900829 0.376838 0.189736

loop_
_geom_bond_atom_site_label_1
_geom_bond_atom_site_label_2
_ccdc_geom_bond_type
C30   H24   S    
C27   C28   S    
C32   C33   S    
C15   N2    A    
C19   C20   S    
C2    C12   S    
C7    C8    A    
O4    Zn2   S    
C13   N1    A    
C18   O6    A    
C14   N2    A    
C5    C6    A    
C10   C32   S    
C29   H17   S    
C30   C31   S    
C15   C16   S    
C28   C29   S    
O6    Zn2   S    
C31   H26   S    
C9    H8    S    
C11   C15   A    
C25   C26   S    
C20   C24   T    
C19   O7    A    
C8    C9    S    
C22   H1    S    
C27   H21   S    
C9    C10   S    
C17   C27   S    
C1    O1    A    
O3    Zn1   S    
C16   H3    S    
C25   H12   S    
C6    H7    S    
C33   H32   S    
C21   C22   D    
C16   O9    S    
C32   H33   S    
O8    Zn2   S    
C33   C34   S    
C26   H13   S    
C3    C8    A    
C18   O5    A    
C16   C17   S    
C29   H18   S    
C21   H5    S    
C26   H14   S    
C12   O4    A    
C31   H27   S    
C34   H28   S    
C34   H29   S    
O9    C25   S    
C7    C18   S    
C27   H22   S    
N2    Zn1   S    
C14   H2    S    
O7    Zn1   S    
C1    O2    A    
C25   H11   S    
C33   H31   S    
C28   H20   S    
O1    Zn1   S    
C3    C4    A    
C32   H34   S    
C19   O8    A    
C5    H6    S    
C11   C17   S    
C28   H19   S    
C17   H4    S    
C4    C5    A    
C6    C7    A    
C26   H15   S    
C1    C4    S    
C12   O3    A    
C11   N1    A    
C13   H10   S    
C3    C10   S    
C29   H16   S    
C30   H23   S    
C10   H9    S    
C31   H25   S    
C34   H30   S    
C9    O10   S    
O2    Zn2   S    
O10   C30   S    
C21   C24   S    
C2    C23   T    
O5    Zn1   S    
C22   C23   S    
C13   C14   A    
N1    Zn2   S    
