data_mof_unit_pretest_204.cif
_audit_creation_date              2012-12-10T19:41:38-0500
_audit_creation_method            fapswitch 2.2
_symmetry_space_group_name_H-M    P1
_symmetry_Int_Tables_number       1
_space_group_crystal_system       triclinic
_cell_length_a                    10.805609
_cell_length_b                    15.906123
_cell_length_c                    17.103016
_cell_angle_alpha                 95.699822
_cell_angle_beta                  91.437385
_cell_angle_gamma                 92.131403
_cell_volume                      2921.80503454

loop_
_atom_site_label
_atom_site_type_symbol
_atom_type_description
_atom_site_fract_x
_atom_site_fract_y
_atom_site_fract_z
_atom_type_partial_charge
C1    C     C_R   0.499350 0.489959 0.348736 0.779906
C2    C     C_R   0.501309 0.509980 0.651290 0.789721
C3    C     C_R   0.871224 0.499140 0.496412 -0.087811
C4    C     C_R   0.128670 0.501108 0.503672 -0.066233
C5    C     C_R   0.934020 0.436339 0.451052 0.009666
C6    C     C_R   0.066020 0.564268 0.548528 0.011167
C7    C     C_R   0.496737 0.485049 0.262728 -0.040760
C8    C     C_R   0.504426 0.514724 0.737328 -0.044973
C9    C     C_R   0.525751 0.557155 0.224856 -0.222185
C10   C     C_R   0.494954 0.440601 0.775236 -0.187334
C11   C     C_R   0.520297 0.553136 0.143310 -0.136839
C12   C     C_R   0.498166 0.445152 0.856866 -0.141126
C13   C     C_R   0.486415 0.476194 0.098115 0.377778
C14   C     C_R   0.511593 0.524379 0.901945 0.371454
C15   C     C_R   0.457611 0.404533 0.136103 -0.148229
C16   C     C_R   0.523479 0.597823 0.863977 -0.152837
C17   C     C_R   0.463825 0.408533 0.217737 -0.220515
C18   C     C_R   0.518226 0.593322 0.782356 -0.223833
C19   C     C_R   0.425275 0.751087 0.468738 0.464506
C20   C     C_R   0.541123 0.252204 0.551918 0.482538
C21   C     C_R   0.426645 0.840918 0.469390 -0.232896
C22   C     C_R   0.525919 0.164264 0.559946 -0.250670
C23   C     C_R   0.262557 0.500583 0.502653 0.795972
C24   C     C_R   0.737400 0.499463 0.497184 0.784838
C25   C     C_R   0.529852 0.890029 0.503425 0.229465
C26   C     C_R   0.473966 0.110300 0.496194 0.220313
C27   C     C_R   0.621994 0.847767 0.541043 -0.397423
C28   C     C_R   0.425343 0.147311 0.431716 -0.410892
C29   C     C_R   0.610370 0.759740 0.548110 0.544153
C30   C     C_R   0.425307 0.236538 0.430877 0.547233
C31   C     C_R   0.211429 0.673118 0.737097 0.037638
C32   C     C_R   0.789028 0.343015 0.256813 0.030222
C33   C     C_R   0.158603 0.610304 0.681295 -0.229476
C34   C     C_R   0.830806 0.402051 0.319439 -0.205668
C35   C     C_R   0.130294 0.628831 0.604571 0.059228
C36   C     C_R   0.871889 0.374877 0.390873 0.104530
C37   C     C_R   0.155028 0.710395 0.583279 -0.033233
C38   C     C_R   0.870736 0.288153 0.399646 -0.165287
C39   C     C_R   0.211475 0.772324 0.637532 -0.161870
C40   C     C_R   0.822279 0.229582 0.339500 -0.167233
C41   C     C_R   0.239439 0.754029 0.714089 -0.191809
C42   C     C_R   0.781700 0.256655 0.268338 -0.147927
C43   C     C_R   0.937549 0.562611 0.544214 -0.226929
C44   C     C_R   0.062286 0.437486 0.456446 -0.244803
Cu1   Cu    Cu3+1 0.493970 0.415220 0.496180 1.019607
Cu2   Cu    Cu3+1 0.506030 0.584780 0.503820 1.015551
H1    H     H_    0.281391 0.803469 0.755505 0.174515
H2    H     H_    0.748630 0.209787 0.221497 0.170658
H3    H     H_    0.443477 0.351646 0.245419 0.212819
H4    H     H_    0.523861 0.651470 0.754706 0.165918
H5    H     H_    0.702765 0.884069 0.565894 0.191241
H6    H     H_    0.385618 0.106075 0.382721 0.194065
H7    H     H_    0.136283 0.547536 0.697651 0.175552
H8    H     H_    0.837458 0.468849 0.311700 0.165028
H9    H     H_    0.130314 0.725843 0.524813 0.193149
H10   H     H_    0.909556 0.265790 0.452365 0.115741
H11   H     H_    0.231976 0.835018 0.620622 0.177014
H12   H     H_    0.820017 0.162792 0.347060 0.150739
H13   H     H_    0.888905 0.610135 0.579584 0.198534
H14   H     H_    0.110926 0.390444 0.420883 0.161722
H15   H     H_    0.484509 0.379053 0.741993 0.218365
H16   H     H_    0.553639 0.616623 0.258140 0.150604
H17   H     H_    0.490448 0.386790 0.884324 0.167423
H18   H     H_    0.543767 0.609987 0.116066 0.158211
H19   H     H_    0.432317 0.344963 0.102153 0.158150
H20   H     H_    0.534129 0.658997 0.897921 0.163226
N1    N     N_2   0.483152 0.467409 0.014831 -0.255489
N2    N     N_2   0.513757 0.533253 0.985156 -0.265579
N3    N     N_R   0.515100 0.712130 0.509560 -0.235483
N4    N     N_R   0.484900 0.287870 0.490440 -0.239373
N5    N     N_2   0.548531 0.979816 0.499169 -0.136501
N6    N     N_2   0.452251 0.021403 0.500130 -0.154987
O1    O     O_R   0.494360 0.420530 0.382500 -0.528694
O2    O     O_R   0.505640 0.579470 0.617500 -0.571792
O3    O     O_R   0.504550 0.563720 0.388950 -0.598590
O4    O     O_R   0.495450 0.436280 0.611050 -0.530401
O5    O     O_R   0.314550 0.428410 0.496780 -0.583615
O6    O     O_R   0.685450 0.571590 0.503220 -0.533972
O7    O     O_R   0.324740 0.571600 0.503230 -0.521614
O8    O     O_R   0.675260 0.428400 0.496770 -0.572846
O9    O     O_3   0.605323 0.303847 0.610210 -0.526354
C45   C     C_3   0.733675 0.291475 0.604960 0.090649
H21   H     H_    0.765487 0.298488 0.544827 0.143656
H22   H     H_    0.757568 0.227932 0.621011 0.133986
C46   C     C_3   0.803497 0.357545 0.661656 -0.735097
H23   H     H_    0.904846 0.350256 0.656374 0.197878
H24   H     H_    0.780714 0.422128 0.648112 0.235129
H25   H     H_    0.777409 0.349599 0.722971 0.252850
O10   O     O_3   0.325691 0.702743 0.433596 -0.552396
C47   C     C_3   0.322015 0.702932 0.350656 0.069591
H26   H     H_    0.359527 0.643809 0.323624 0.174598
H27   H     H_    0.375770 0.756101 0.328142 0.130521
C48   C     C_3   0.187794 0.703417 0.321449 -0.767133
H28   H     H_    0.144543 0.762632 0.344430 0.269104
H29   H     H_    0.183838 0.698708 0.256208 0.210150
H30   H     H_    0.134372 0.648695 0.341143 0.248610
C49   C     C_2   0.554479 0.132889 0.637597 0.884975
O11   O     O_2   0.590662 0.061594 0.641810 -0.589708
O12   O     O_R   0.539965 0.186021 0.706737 -0.742081
H31   H     H_    0.562661 0.158319 0.755744 0.331240
C50   C     C_2   0.320777 0.881030 0.433458 0.908011
O13   O     O_2   0.217734 0.873949 0.460544 -0.616557
O14   O     O_R   0.338872 0.926187 0.368325 -0.765513
H32   H     H_    0.259565 0.950406 0.348994 0.321809
O15   O     O_3   0.700065 0.719813 0.588522 -0.554888
C51   C     C_3   0.711188 0.755930 0.667503 0.058426
H33   H     H_    0.618669 0.762546 0.694322 0.137388
H34   H     H_    0.760094 0.818985 0.671618 0.155848
C52   C     C_3   0.787447 0.699548 0.715300 -0.788298
H35   H     H_    0.885671 0.702237 0.697787 0.242910
H36   H     H_    0.783630 0.721724 0.778806 0.214576
H37   H     H_    0.750641 0.633102 0.705708 0.248705
O16   O     O_3   0.376028 0.272343 0.366947 -0.557619
C53   C     C_3   0.250286 0.246101 0.352729 0.047907
H38   H     H_    0.196168 0.257862 0.407023 0.139621
H39   H     H_    0.240254 0.178023 0.330888 0.144314
C54   C     C_3   0.195433 0.295127 0.288944 -0.792924
H40   H     H_    0.236839 0.275169 0.231614 0.241418
H41   H     H_    0.093686 0.282351 0.283531 0.221878
H42   H     H_    0.214550 0.364081 0.303285 0.246729
C55   C     C_2   0.234045 0.654606 0.819391 0.832453
O17   O     O_2   0.274127 0.710407 0.868916 -0.607430
O18   O     O_R   0.209298 0.573144 0.840750 -0.764934
H43   H     H_    0.228979 0.568377 0.898381 0.345005
C56   C     C_2   0.760789 0.371137 0.178484 0.835596
O19   O     O_2   0.721315 0.320193 0.124514 -0.601609
O20   O     O_R   0.781825 0.455875 0.165572 -0.767927
H44   H     H_    0.761977 0.466824 0.109315 0.344503

loop_
_geom_bond_atom_site_label_1
_geom_bond_atom_site_label_2
_ccdc_geom_bond_type
C48   H28   S    
C27   C29   A    
C26   N6    S    
C20   N4    A    
C53   H38   S    
O18   H43   S    
C39   C41   A    
C46   H23   S    
C3    C43   A    
C50   O13   D    
Cu1   O4    S    
C35   C37   A    
C52   H36   S    
Cu2   O7    S    
C51   H33   S    
C15   H19   S    
C5    C36   S    
C11   C13   A    
C6    C35   S    
Cu1   O1    S    
Cu2   N3    S    
C30   N4    A    
C24   O8    A    
C7    C17   A    
C31   C33   A    
C25   N5    S    
C2    O2    A    
C43   H13   S    
C21   C50   S    
C40   C42   A    
C48   H29   S    
C22   C49   S    
C20   O9    S    
C29   O15   S    
C3    C24   S    
Cu2   O3    S    
C49   O12   S    
C27   H5    S    
C49   O11   D    
C29   N3    A    
C46   H24   S    
C33   H7    S    
C40   H12   S    
N1    N2    D    
C1    O3    A    
C31   C55   S    
C4    C6    A    
C11   H18   S    
C52   H37   S    
C17   H3    S    
Cu2   O6    S    
C12   H17   S    
C4    C44   A    
Cu1   Cu2   S    
C8    C18   A    
C9    H16   S    
C32   C34   A    
C32   C56   S    
C19   O10   S    
C47   H27   S    
O12   H31   S    
C41   H1    S    
C16   C18   A    
C42   H2    S    
C23   O5    A    
C9    C11   A    
C55   O17   D    
C10   C12   A    
C24   O6    A    
C5    C44   A    
C12   C14   A    
C34   H8    S    
C48   H30   S    
C45   H22   S    
C6    C43   A    
C13   C15   A    
C56   O19   D    
C14   C16   A    
C54   H42   S    
C10   H15   S    
C16   H20   S    
O20   H44   S    
Cu2   O2    S    
C2    O4    A    
C18   H4    S    
C47   C48   S    
O16   C53   S    
C13   N1    S    
C46   H25   S    
C4    C23   S    
C21   C25   A    
C32   C42   A    
C31   C41   A    
C19   C21   A    
Cu1   N4    S    
C1    C7    S    
C8    C10   A    
C2    C8    S    
C20   C22   A    
C3    C5    A    
C53   H39   S    
C15   C17   A    
C25   C27   A    
C45   C46   S    
O15   C51   S    
C26   C28   A    
C50   O14   S    
C1    O1    A    
C54   H41   S    
N5    N6    D    
C37   C39   A    
C52   H35   S    
C36   C38   A    
C38   C40   A    
C28   H6    S    
C47   H26   S    
C51   H34   S    
C44   H14   S    
C28   C30   A    
C33   C35   A    
Cu1   O8    S    
C34   C36   A    
C55   O18   S    
C53   C54   S    
C19   N3    A    
C37   H9    S    
C7    C9    A    
C38   H10   S    
O9    C45   S    
C45   H21   S    
C22   C26   A    
O14   H32   S    
C56   O20   S    
C14   N2    S    
Cu1   O5    S    
C23   O7    A    
O10   C47   S    
C54   H40   S    
C30   O16   S    
C51   C52   S    
C39   H11   S    
