data_mof_unit_pretest_325.cif
_audit_creation_date              2012-12-10T17:47:44-0500
_audit_creation_method            fapswitch 2.2
_symmetry_space_group_name_H-M    P1
_symmetry_Int_Tables_number       1
_space_group_crystal_system       triclinic
_cell_length_a                    14.760516
_cell_length_b                    14.667373
_cell_length_c                    14.348729
_cell_angle_alpha                 77.51497
_cell_angle_beta                  103.110967
_cell_angle_gamma                 114.980999
_cell_volume                      2716.83330243

loop_
_atom_site_label
_atom_site_type_symbol
_atom_type_description
_atom_site_fract_x
_atom_site_fract_y
_atom_site_fract_z
_atom_type_partial_charge
C1    C     C_R   0.879996 0.312131 0.514351 0.810997
C2    C     C_R   0.120238 0.688198 0.485552 0.846156
C3    C     C_R   0.637001 0.085855 0.542280 -0.025243
C4    C     C_R   0.358590 0.929623 0.510666 -0.086376
C5    C     C_R   0.674043 0.016094 0.606415 0.006663
C6    C     C_R   0.317984 0.004433 0.472846 0.038837
C7    C     C_R   0.530547 0.061312 0.522058 0.130525
C8    C     C_R   0.463383 0.960703 0.548402 0.064344
C9    C     C_R   0.501793 0.895622 0.616035 -0.242238
C10   C     C_R   0.488645 0.134526 0.482362 -0.187021
C11   C     C_R   0.604927 0.923081 0.644973 -0.157871
C12   C     C_R   0.384271 0.106883 0.461700 -0.200378
C13   C     C_R   0.726006 0.681420 0.359374 -0.390526
C14   C     C_R   0.292284 0.345031 0.666446 -0.386250
C15   C     C_R   0.802459 0.644842 0.375908 0.678382
C16   C     C_R   0.209910 0.373085 0.640199 0.652175
C17   C     C_R   0.711655 0.505409 0.484371 -0.003810
C18   C     C_R   0.280591 0.482508 0.503832 0.018803
C19   C     C_R   0.632142 0.539253 0.471093 -0.005026
C20   C     C_R   0.372350 0.467094 0.534548 -0.006970
C21   C     C_R   0.640753 0.627901 0.404991 0.028150
C22   C     C_R   0.373912 0.393199 0.615690 0.024832
C23   C     C_R   0.000348 0.499838 0.668945 0.805607
C24   C     C_R   0.999450 0.500024 0.331049 0.787950
C25   C     C_R   0.545854 0.489803 0.520655 -0.059851
C26   C     C_R   0.461781 0.521543 0.489611 -0.059665
C27   C     C_R   0.473656 0.610346 0.419826 0.431244
C28   C     C_R   0.542869 0.414097 0.603075 0.429458
C29   C     C_R   0.564768 0.664082 0.383928 -0.243312
C30   C     C_R   0.457999 0.369555 0.649420 -0.244192
C31   C     C_1   0.000579 0.499479 0.771459 -0.208990
C32   C     C_1   0.998314 0.499852 0.228481 -0.206080
C33   C     C_1   0.000069 0.499279 0.856812 -0.019385
C34   C     C_1   0.997954 0.499559 0.143045 -0.018316
C35   C     C_1   0.999157 0.499247 0.957290 -0.000438
C36   C     C_1   0.998417 0.499348 0.042521 -0.005031
C37   C     C_R   0.811221 0.204797 0.532837 -0.215401
C38   C     C_R   0.188843 0.797037 0.481566 -0.150643
C39   C     C_R   0.779039 0.039341 0.631973 0.459944
C40   C     C_R   0.212414 0.975980 0.446567 0.452408
C41   C     C_R   0.846831 0.136139 0.596215 -0.377299
C42   C     C_R   0.148987 0.871853 0.452248 -0.384314
C43   C     C_R   0.707046 0.174775 0.497086 0.328188
C44   C     C_R   0.294374 0.826199 0.505321 0.314381
Cu1   Cu    Cu3+1 0.081740 0.475690 0.523180 0.980969
Cu2   Cu    Cu3+1 0.918260 0.524310 0.476820 0.975412
H1    H     H_    0.630041 0.869643 0.696789 0.195505
H2    H     H_    0.355981 0.166326 0.434432 0.187410
H3    H     H_    0.068357 0.848719 0.429925 0.204232
H4    H     H_    0.927640 0.160050 0.617018 0.202140
H5    H     H_    0.452066 0.823480 0.649232 0.199233
H6    H     H_    0.535040 0.214764 0.472814 0.188683
H7    H     H_    0.576422 0.736103 0.338141 0.145727
H8    H     H_    0.459390 0.317487 0.715621 0.148690
H9    H     H_    0.265580 0.525919 0.436812 0.192384
H10   H     H_    0.708698 0.434603 0.525127 0.192777
H11   H     H_    0.732522 0.751525 0.312256 0.144140
H12   H     H_    0.293818 0.288152 0.728443 0.148490
N1    N     N_R   0.795420 0.560790 0.441960 -0.223352
N2    N     N_R   0.204580 0.439210 0.558040 -0.222382
O1    O     O_R   0.977910 0.338120 0.530560 -0.541239
O2    O     O_R   0.022090 0.661880 0.469440 -0.543041
O3    O     O_R   0.839850 0.379180 0.491410 -0.580844
O4    O     O_R   0.160150 0.620820 0.508590 -0.518791
O5    O     O_R   0.069040 0.479460 0.643530 -0.541380
O6    O     O_R   0.930960 0.520540 0.356470 -0.540180
O7    O     O_R   0.930990 0.520530 0.604380 -0.552367
O8    O     O_R   0.069010 0.479470 0.395620 -0.586524
O9    O     O_3   0.405447 0.656597 0.399613 -0.615111
C45   C     C_3   0.364997 0.661185 0.299959 0.003405
H13   H     H_    0.329712 0.583801 0.277689 0.133741
H14   H     H_    0.424153 0.711328 0.254607 0.147055
C46   C     C_3   0.284164 0.705129 0.281163 -0.293088
H15   H     H_    0.222316 0.655477 0.323509 0.230289
H16   H     H_    0.318004 0.781591 0.304692 0.228311
C47   C     C_3   0.239947 0.714479 0.174274 -0.928540
H17   H     H_    0.299287 0.769488 0.131175 0.256550
H18   H     H_    0.178260 0.741857 0.163744 0.257354
H19   H     H_    0.208576 0.639620 0.148004 0.263482
O10   O     O_3   0.629602 0.399565 0.651501 -0.618176
C48   C     C_3   0.615256 0.295557 0.666326 0.008364
H20   H     H_    0.661877 0.286061 0.621308 0.164298
H21   H     H_    0.535939 0.241751 0.645708 0.128969
C49   C     C_3   0.651840 0.265026 0.772086 -0.310252
H22   H     H_    0.730508 0.319115 0.793333 0.236233
H23   H     H_    0.602586 0.268400 0.818326 0.211248
C50   C     C_3   0.649883 0.157858 0.788636 -0.914876
H24   H     H_    0.572386 0.102352 0.766197 0.260611
H25   H     H_    0.673681 0.136564 0.866483 0.255893
H26   H     H_    0.702939 0.154583 0.746792 0.256481
O11   O     O_3   0.333581 0.753966 0.513466 -0.700700
H27   H     H_    0.396238 0.786259 0.483864 0.359117
O12   O     O_3   0.673367 0.226835 0.413890 -0.744998
H28   H     H_    0.728699 0.263093 0.374454 0.328364
O13   O     O_3   0.808800 0.963048 0.688705 -0.622912
C51   C     C_3   0.910392 0.996098 0.735076 0.076760
H29   H     H_    0.913028 0.943661 0.803310 0.159156
H30   H     H_    0.938505 0.072042 0.758415 0.126082
C52   C     C_3   0.978074 0.988496 0.672690 -0.348975
H31   H     H_    0.958369 0.907181 0.669211 0.224701
H32   H     H_    0.965105 0.025790 0.597923 0.220318
C53   C     C_3   0.089790 0.038187 0.713486 -0.951860
H33   H     H_    0.112879 0.121465 0.706994 0.274187
H34   H     H_    0.136120 0.023627 0.671929 0.253825
H35   H     H_    0.104449 0.006936 0.790480 0.258972
O14   O     O_3   0.175205 0.051321 0.406933 -0.618742
C54   C     C_3   0.085684 0.034805 0.440830 0.047295
H36   H     H_    0.097003 0.106214 0.465437 0.169074
H37   H     H_    0.067961 0.975026 0.504619 0.134178
C55   C     C_3   0.996412 0.011633 0.358022 -0.342970
H38   H     H_    0.011132 0.078033 0.300316 0.225934
H39   H     H_    0.988230 0.945422 0.326266 0.220958
C56   C     C_3   0.897466 0.988826 0.392341 -0.914501
H40   H     H_    0.880513 0.921793 0.449286 0.265143
H41   H     H_    0.834585 0.971803 0.330722 0.253871
H42   H     H_    0.902265 0.055421 0.421230 0.259319
O15   O     O_3   0.130500 0.328751 0.693246 -0.602093
C57   C     C_3   0.164161 0.348441 0.790734 0.048713
H43   H     H_    0.121259 0.388285 0.806388 0.180978
H44   H     H_    0.245802 0.398926 0.807032 0.121633
C58   C     C_3   0.141378 0.248715 0.859552 -0.387301
H45   H     H_    0.059489 0.200541 0.845368 0.223158
H46   H     H_    0.184867 0.207463 0.847571 0.213896
C59   C     C_3   0.169150 0.267458 0.964842 -0.896231
H47   H     H_    0.251229 0.314372 0.981507 0.256739
H48   H     H_    0.151516 0.193730 0.012838 0.257952
H49   H     H_    0.125075 0.306897 0.979499 0.256871
O16   O     O_3   0.889048 0.695022 0.332354 -0.592194
C60   C     C_3   0.869815 0.727011 0.231892 0.001297
H50   H     H_    0.944408 0.764607 0.206279 0.175138
H51   H     H_    0.838678 0.786489 0.216374 0.125000
C61   C     C_3   0.803845 0.638047 0.173990 -0.361806
H52   H     H_    0.836583 0.579677 0.191919 0.243370
H53   H     H_    0.726099 0.602495 0.192626 0.204306
C62   C     C_3   0.797268 0.673748 0.065519 -0.894334
H54   H     H_    0.763887 0.731780 0.045370 0.253320
H55   H     H_    0.748554 0.608263 0.025729 0.261666
H56   H     H_    0.873653 0.706594 0.043936 0.255975

loop_
_geom_bond_atom_site_label_1
_geom_bond_atom_site_label_2
_ccdc_geom_bond_type
C7    C10   A    
C50   H24   S    
Cu1   N2    S    
O12   H28   S    
Cu2   N1    S    
C27   C29   A    
C54   H37   S    
C46   H15   S    
C11   H1    S    
C35   C36   T    
C9    H5    S    
C47   H19   S    
C4    C8    A    
C10   H6    S    
O16   C60   S    
C48   H20   S    
C62   H56   S    
C7    C8    A    
C39   C41   A    
Cu1   Cu2   S    
C25   C28   A    
C30   H8    S    
C3    C43   A    
C26   C27   A    
C29   H7    S    
Cu2   O2    S    
C40   O14   S    
C19   C21   A    
C49   H23   S    
C5    C11   A    
C3    C7    A    
C6    C12   A    
C13   H11   S    
O14   C54   S    
C51   C52   S    
C53   H35   S    
C16   N2    A    
C23   O7    A    
C55   H38   S    
C58   C59   S    
C33   C35   S    
C57   H43   S    
O13   C51   S    
C61   H52   S    
C51   H30   S    
C54   H36   S    
C49   C50   S    
C45   H13   S    
C14   C16   A    
C18   C20   A    
C27   O9    S    
C24   O6    A    
C56   H42   S    
Cu1   O1    S    
C40   C42   A    
C46   H16   S    
C53   H33   S    
C45   C46   S    
C28   O10   S    
C1    O3    A    
C48   H21   S    
C2    O4    A    
C57   H44   S    
C23   O5    A    
C14   H12   S    
C62   H54   S    
C49   H22   S    
C4    C6    A    
O11   H27   S    
C8    C9    A    
C4    C44   A    
C25   C26   A    
C21   C29   A    
C57   C58   S    
C23   C31   S    
C37   C43   A    
C24   C32   S    
C38   C44   A    
C2    C38   S    
C52   H31   S    
C55   C56   S    
C51   H29   S    
Cu1   O8    S    
C31   C33   T    
C13   C21   A    
C47   H17   S    
C53   H34   S    
C9    C11   A    
C17   H10   S    
C39   O13   S    
C58   H45   S    
C44   O11   S    
C10   C12   A    
C18   H9    S    
C17   N1    A    
C59   H49   S    
C18   N2    A    
C52   H32   S    
C20   C22   A    
C15   O16   S    
C13   C15   A    
Cu1   O5    S    
C54   C55   S    
C6    C40   A    
C41   H4    S    
C48   C49   S    
C59   H48   S    
C56   H40   S    
C62   H55   S    
C22   C30   A    
C15   N1    A    
C47   H18   S    
O10   C48   S    
C3    C5    A    
C1    O1    A    
Cu2   O6    S    
C1    C37   S    
Cu1   O4    S    
Cu2   O3    S    
C43   O12   S    
C60   C61   S    
C5    C39   A    
C60   H50   S    
Cu2   O7    S    
C16   O15   S    
C14   C22   A    
C20   C26   A    
C61   C62   S    
C28   C30   A    
C17   C19   A    
C12   H2    S    
C34   C36   S    
C37   C41   A    
O9    C45   S    
C19   C25   A    
C55   H39   S    
C58   H46   S    
C24   O8    A    
C42   H3    S    
C38   C42   A    
C52   C53   S    
C46   C47   S    
C61   H53   S    
C50   H26   S    
C50   H25   S    
C45   H14   S    
C56   H41   S    
O15   C57   S    
C2    O2    A    
C32   C34   T    
C59   H47   S    
C60   H51   S    
