data_mof_unit_pretest_1645.cif
_audit_creation_date              2012-12-10T18:15:20-0500
_audit_creation_method            fapswitch 2.2
_symmetry_space_group_name_H-M    P1
_symmetry_Int_Tables_number       1
_space_group_crystal_system       monoclinic
_cell_length_a                    18.341275
_cell_length_b                    18.341276
_cell_length_c                    39.719839
_cell_angle_alpha                 90.0
_cell_angle_beta                  90.0
_cell_angle_gamma                 89.997207
_cell_volume                      13361.8486337

loop_
_atom_site_label
_atom_site_type_symbol
_atom_type_description
_atom_site_fract_x
_atom_site_fract_y
_atom_site_fract_z
_atom_type_partial_charge
C1    C     C_R   0.950997 0.455790 0.431402 -0.108101
C2    C     C_R   0.549002 0.044211 0.068598 -0.108101
C3    C     C_R   0.323998 0.729973 0.753292 -0.042329
C4    C     C_R   0.218012 0.271987 0.280701 -0.041405
C5    C     C_R   0.781987 0.728013 0.719298 -0.041405
C6    C     C_R   0.323998 0.729973 0.246708 -0.042329
C7    C     C_R   0.676002 0.270027 0.753292 -0.042329
C8    C     C_R   0.196170 0.696170 0.250000 0.005424
C9    C     C_R   0.803829 0.303829 0.750000 0.005424
C10   C     C_R   0.303830 0.196169 0.250000 0.005963
C11   C     C_R   0.696169 0.803831 0.750000 0.005962
C12   C     C_R   0.803829 0.303829 0.250000 0.005424
C13   C     C_R   0.955792 0.450995 0.931402 -0.108101
C14   C     C_R   0.196170 0.696170 0.750000 0.005424
C15   C     C_R   0.696169 0.803831 0.250000 0.005962
C16   C     C_R   0.303830 0.196169 0.750000 0.005962
C17   C     C_R   0.196169 0.303831 0.750000 0.005962
C18   C     C_R   0.803831 0.696169 0.250000 0.005962
C19   C     C_R   0.303829 0.803830 0.750000 0.005424
C20   C     C_R   0.696170 0.196170 0.250000 0.005424
C21   C     C_R   0.803831 0.696169 0.750000 0.005962
C22   C     C_R   0.196169 0.303831 0.250000 0.005963
C23   C     C_R   0.696170 0.196170 0.750000 0.005424
C24   C     C_R   0.044210 0.549003 0.068598 -0.108101
C25   C     C_R   0.303829 0.803830 0.250000 0.005424
C26   C     C_R   1.000000 0.500000 0.378165 0.021396
C27   C     C_R   1.000000 0.500000 0.621835 0.021395
C28   C     C_R   0.500000 0.000000 0.378165 0.021395
C29   C     C_R   0.500000 1.000000 0.621835 0.021396
C30   C     C_R   0.500000 1.000000 0.878165 0.021392
C31   C     C_R   0.500000 0.000000 0.121835 0.021397
C32   C     C_R   1.000000 0.500000 0.878165 0.021395
C33   C     C_R   1.000000 0.500000 0.121835 0.021396
C34   C     C_1   0.209645 0.899933 0.257866 0.247137
C35   C     C_R   0.549010 0.044201 0.931403 -0.108102
C36   C     C_1   0.790355 0.100067 0.742134 0.247139
C37   C     C_1   0.207157 0.316751 0.187867 0.247653
C38   C     C_1   0.792844 0.683250 0.812133 0.247654
C39   C     C_1   0.790355 0.100067 0.257866 0.247137
C40   C     C_1   0.209645 0.899933 0.742134 0.247138
C41   C     C_1   0.792843 0.683249 0.187867 0.247654
C42   C     C_1   0.207155 0.316749 0.812133 0.247654
C43   C     C_1   0.316749 0.207155 0.812133 0.247654
C44   C     C_1   0.683249 0.792843 0.187867 0.247653
C45   C     C_1   0.100067 0.790355 0.742134 0.247137
C46   C     C_R   0.450998 0.955789 0.068598 -0.108101
C47   C     C_1   0.899933 0.209645 0.257866 0.247137
C48   C     C_1   0.683250 0.792844 0.812133 0.247653
C49   C     C_1   0.316751 0.207157 0.187867 0.247653
C50   C     C_1   0.899933 0.209645 0.742134 0.247137
C51   C     C_1   0.100067 0.790355 0.257866 0.247137
C52   C     C_1   0.709645 0.399933 0.757866 0.247137
C53   C     C_1   0.290355 0.600067 0.242134 0.247138
C54   C     C_1   0.707156 0.816750 0.687867 0.247654
C55   C     C_1   0.292842 0.183248 0.312133 0.247654
C56   C     C_1   0.290355 0.600067 0.757866 0.247137
C57   C     C_R   0.044208 0.549005 0.931402 -0.108101
C58   C     C_1   0.709645 0.399933 0.242134 0.247138
C59   C     C_1   0.292845 0.183251 0.687867 0.247654
C60   C     C_1   0.707157 0.816751 0.312133 0.247654
C61   C     C_1   0.816751 0.707157 0.312133 0.247653
C62   C     C_1   0.183251 0.292845 0.687867 0.247654
C63   C     C_1   0.600067 0.290355 0.242134 0.247138
C64   C     C_1   0.399933 0.709645 0.757866 0.247135
C65   C     C_1   0.183248 0.292843 0.312133 0.247654
C66   C     C_1   0.816750 0.707156 0.687867 0.247654
C67   C     C_1   0.399933 0.709645 0.242134 0.247138
C68   C     C_R   0.955790 0.450997 0.068598 -0.108101
C69   C     C_1   0.600067 0.290355 0.757866 0.247135
C70   C     C_1   0.900440 0.406723 0.379349 0.235020
C71   C     C_1   0.099566 0.593270 0.620651 0.235022
C72   C     C_1   0.406726 0.900438 0.379349 0.235021
C73   C     C_1   0.593279 0.099557 0.620651 0.235020
C74   C     C_1   0.099560 0.593277 0.379349 0.235020
C75   C     C_1   0.900434 0.406730 0.620651 0.235022
C76   C     C_1   0.593274 0.099562 0.379349 0.235021
C77   C     C_1   0.406720 0.900443 0.620651 0.235020
C78   C     C_1   0.400423 0.906741 0.879350 0.235026
C79   C     C_R   0.950543 0.455352 0.396220 -0.022723
C80   C     C_1   0.599558 0.093278 0.120651 0.235020
C81   C     C_1   0.906727 0.400435 0.879349 0.235021
C82   C     C_1   0.093276 0.599560 0.120651 0.235021
C83   C     C_1   0.599576 0.093259 0.879350 0.235025
C84   C     C_1   0.400441 0.906722 0.120651 0.235020
C85   C     C_1   0.093273 0.599564 0.879349 0.235021
C86   C     C_1   0.906724 0.400440 0.120651 0.235021
C87   C     C_R   0.049459 0.544644 0.603780 -0.022723
C88   C     C_R   0.455354 0.950542 0.396220 -0.022723
C89   C     C_R   0.049005 0.544207 0.568597 -0.108101
C90   C     C_R   0.544649 0.049455 0.603780 -0.022723
C91   C     C_R   0.049456 0.544648 0.396220 -0.022723
C92   C     C_R   0.950541 0.455356 0.603780 -0.022723
C93   C     C_R   0.544646 0.049458 0.396220 -0.022723
C94   C     C_R   0.455351 0.950545 0.603780 -0.022723
C95   C     C_R   0.450536 0.955361 0.896220 -0.022723
C96   C     C_R   0.549456 0.044648 0.103780 -0.022723
C97   C     C_R   0.955354 0.450541 0.896220 -0.022723
C98   C     C_R   0.044647 0.549457 0.103780 -0.022723
C99   C     C_R   0.549464 0.044639 0.896220 -0.022723
C100  C     C_R   0.455791 0.950996 0.431402 -0.108101
C101  C     C_R   0.450544 0.955352 0.103780 -0.022723
C102  C     C_R   0.044646 0.549459 0.896220 -0.022723
C103  C     C_R   0.955353 0.450543 0.103780 -0.022723
C104  C     C_R   1.000000 0.500000 0.448860 0.013836
C105  C     C_R   1.000000 0.500000 0.551140 0.013836
C106  C     C_R   0.500000 0.000000 0.448860 0.013836
C107  C     C_R   0.500000 1.000000 0.551140 0.013836
C108  C     C_R   0.500000 1.000000 0.948860 0.013836
C109  C     C_R   0.500000 1.000000 0.051140 0.013836
C110  C     C_R   1.000000 0.500000 0.948860 0.013837
C111  C     C_R   0.544211 0.049001 0.568598 -0.108101
C112  C     C_R   1.000000 0.500000 0.051140 0.013836
C113  C     C_1   1.000000 0.500000 0.484888 -0.002572
C114  C     C_1   1.000000 0.500000 0.515112 -0.002572
C115  C     C_1   0.500000 0.000000 0.484888 -0.002572
C116  C     C_1   0.500000 0.000000 0.515112 -0.002572
C117  C     C_1   0.500000 1.000000 0.984888 -0.002572
C118  C     C_1   0.500000 1.000000 0.015112 -0.002572
C119  C     C_1   0.000000 0.500000 0.984888 -0.002572
C120  C     C_1   0.000000 0.500000 0.015112 -0.002572
C121  C     C_R   0.500000 0.000000 0.340977 0.509514
C122  C     C_R   0.049002 0.544210 0.431402 -0.108101
C123  C     C_R   0.500000 1.000000 0.659023 0.509515
C124  C     C_R   1.000000 0.500000 0.340977 0.509515
C125  C     C_R   1.000000 0.500000 0.659022 0.509513
C126  C     C_R   0.000000 0.500000 0.840977 0.509513
C127  C     C_R   1.000000 0.500000 0.159023 0.509515
C128  C     C_R   0.500000 0.000000 0.840977 0.509512
C129  C     C_R   0.500000 1.000000 0.159023 0.509515
C130  C     C_R   0.360008 0.139992 0.250000 0.517612
C131  C     C_R   0.639992 0.860008 0.750000 0.517612
C132  C     C_R   0.860007 0.360007 0.250000 0.515536
C133  C     C_R   0.950994 0.455793 0.568597 -0.108101
C134  C     C_R   0.139993 0.639993 0.750000 0.515535
C135  C     C_R   0.639992 0.860008 0.250000 0.517612
C136  C     C_R   0.360008 0.139992 0.750000 0.517611
C137  C     C_R   0.139993 0.639993 0.250000 0.515536
C138  C     C_R   0.860007 0.360007 0.750000 0.515535
C139  C     C_R   0.360007 0.860007 0.750000 0.515535
C140  C     C_R   0.639993 0.139993 0.250000 0.515536
C141  C     C_R   0.860008 0.639992 0.750000 0.517612
C142  C     C_R   0.139992 0.360008 0.250000 0.517612
C143  C     C_R   0.639993 0.139993 0.750000 0.515535
C144  C     C_R   0.544209 0.049004 0.431402 -0.108101
C145  C     C_R   0.360007 0.860007 0.250000 0.515536
C146  C     C_R   0.139992 0.360008 0.750000 0.517611
C147  C     C_R   0.860008 0.639992 0.250000 0.517612
C148  C     C_R   0.229973 0.823998 0.253292 -0.042329
C149  C     C_R   0.770027 0.176002 0.746708 -0.042328
C150  C     C_R   0.228013 0.281988 0.219299 -0.041405
C151  C     C_R   0.771987 0.718013 0.780701 -0.041405
C152  C     C_R   0.770027 0.176002 0.253292 -0.042329
C153  C     C_R   0.229973 0.823998 0.746708 -0.042328
C154  C     C_R   0.771987 0.718012 0.219299 -0.041405
C155  C     C_R   0.455788 0.950999 0.568598 -0.108101
C156  C     C_R   0.228012 0.281986 0.780701 -0.041405
C157  C     C_R   0.281986 0.228012 0.780701 -0.041405
C158  C     C_R   0.718012 0.771987 0.219299 -0.041405
C159  C     C_R   0.176002 0.770027 0.746708 -0.042329
C160  C     C_R   0.823998 0.229973 0.253292 -0.042329
C161  C     C_R   0.718013 0.771987 0.780701 -0.041405
C162  C     C_R   0.281988 0.228013 0.219299 -0.041405
C163  C     C_R   0.823998 0.229973 0.746708 -0.042329
C164  C     C_R   0.176002 0.770027 0.253292 -0.042329
C165  C     C_R   0.729973 0.323998 0.753292 -0.042329
C166  C     C_R   0.450990 0.955799 0.931403 -0.108102
C167  C     C_R   0.270027 0.676002 0.246708 -0.042329
C168  C     C_R   0.728013 0.781987 0.719298 -0.041405
C169  C     C_R   0.271987 0.218012 0.280701 -0.041405
C170  C     C_R   0.270027 0.676002 0.753292 -0.042329
C171  C     C_R   0.729973 0.323998 0.246708 -0.042329
C172  C     C_R   0.271988 0.218013 0.719298 -0.041405
C173  C     C_R   0.728013 0.781988 0.280701 -0.041405
C174  C     C_R   0.781988 0.728013 0.280701 -0.041405
C175  C     C_R   0.218013 0.271988 0.719298 -0.041405
C176  C     C_R   0.676002 0.270027 0.246708 -0.042329
H1    H     H_    0.913382 0.421346 0.445246 0.129938
H2    H     H_    0.586617 0.078655 0.054753 0.129938
H3    H     H_    0.921350 0.413378 0.945247 0.129938
H4    H     H_    0.078654 0.586618 0.054753 0.129938
H5    H     H_    0.586632 0.078638 0.945247 0.129938
H6    H     H_    0.413383 0.921345 0.054753 0.129938
H7    H     H_    0.078650 0.586622 0.945247 0.129938
H8    H     H_    0.921346 0.413382 0.054753 0.129938
H9    H     H_    0.086623 0.578648 0.554753 0.129938
H10   H     H_    0.421348 0.913380 0.445247 0.129938
H11   H     H_    0.578656 0.086615 0.554753 0.129938
H12   H     H_    0.086618 0.578654 0.445246 0.129938
H13   H     H_    0.913377 0.421352 0.554753 0.129938
H14   H     H_    0.578652 0.086620 0.445247 0.129938
H15   H     H_    0.421343 0.913385 0.554753 0.129938
H16   H     H_    0.413368 0.921362 0.945247 0.129938
N1    N     N_1   0.193492 0.960425 0.261517 -0.244748
N2    N     N_1   0.655522 0.809469 0.162841 -0.252450
N3    N     N_1   0.039575 0.806508 0.738482 -0.244749
N4    N     N_1   0.960425 0.193492 0.261517 -0.244748
N5    N     N_1   0.655524 0.809471 0.837159 -0.252450
N6    N     N_1   0.344478 0.190531 0.162841 -0.252450
N7    N     N_1   0.960424 0.193492 0.738483 -0.244749
N8    N     N_1   0.039575 0.806508 0.261517 -0.244748
N9    N     N_1   0.693492 0.460424 0.761517 -0.244749
N10   N     N_1   0.306508 0.539575 0.238483 -0.244748
N11   N     N_1   0.690529 0.844476 0.662841 -0.252449
N12   N     N_1   0.806508 0.039575 0.738482 -0.244748
N13   N     N_1   0.309469 0.155522 0.337159 -0.252450
N14   N     N_1   0.306508 0.539575 0.761517 -0.244749
N15   N     N_1   0.693492 0.460425 0.238483 -0.244748
N16   N     N_1   0.309472 0.155525 0.662841 -0.252449
N17   N     N_1   0.690531 0.844478 0.337159 -0.252450
N18   N     N_1   0.844478 0.690531 0.337159 -0.252450
N19   N     N_1   0.155525 0.309472 0.662841 -0.252450
N20   N     N_1   0.539575 0.306508 0.238483 -0.244748
N21   N     N_1   0.460424 0.693492 0.761517 -0.244750
N22   N     N_1   0.155522 0.309469 0.337159 -0.252450
N23   N     N_1   0.190531 0.344478 0.162841 -0.252450
N24   N     N_1   0.844476 0.690529 0.662841 -0.252450
N25   N     N_1   0.460425 0.693492 0.238483 -0.244748
N26   N     N_1   0.539575 0.306508 0.761517 -0.244750
N27   N     N_1   0.860341 0.367762 0.365838 -0.249831
N28   N     N_1   0.139668 0.632229 0.634162 -0.249829
N29   N     N_1   0.367765 0.860338 0.365838 -0.249830
N30   N     N_1   0.632242 0.139655 0.634162 -0.249832
N31   N     N_1   0.139659 0.632238 0.365838 -0.249831
N32   N     N_1   0.860332 0.367771 0.634162 -0.249829
N33   N     N_1   0.632235 0.139662 0.365838 -0.249830
N34   N     N_1   0.809471 0.655524 0.837159 -0.252450
N35   N     N_1   0.367758 0.860345 0.634162 -0.249832
N36   N     N_1   0.360317 0.867787 0.865839 -0.249826
N37   N     N_1   0.639657 0.132240 0.134162 -0.249831
N38   N     N_1   0.867767 0.360334 0.865838 -0.249830
N39   N     N_1   0.132238 0.639659 0.134162 -0.249831
N40   N     N_1   0.639682 0.132214 0.865839 -0.249826
N41   N     N_1   0.360343 0.867760 0.134162 -0.249831
N42   N     N_1   0.132233 0.639665 0.865838 -0.249830
N43   N     N_1   0.867762 0.360341 0.134162 -0.249831
N44   N     N_1   0.806508 0.039575 0.261517 -0.244748
N45   N     N_1   0.193492 0.960424 0.738482 -0.244748
N46   N     N_1   0.809469 0.655522 0.162841 -0.252450
N47   N     N_1   0.190528 0.344475 0.837159 -0.252449
N48   N     N_1   0.344475 0.190528 0.837159 -0.252450
O1    O     O_3   0.500000 1.000000 0.250000 -0.473508
O2    O     O_R   0.500000 0.939240 0.675070 -0.523421
O3    O     O_R   0.939240 0.500000 0.324930 -0.523421
O4    O     O_R   0.060760 0.500000 0.675070 -0.523421
O5    O     O_R   0.000000 0.439240 0.824930 -0.523421
O6    O     O_R   1.000000 0.560760 0.175070 -0.523422
O7    O     O_R   0.560760 1.000000 0.824930 -0.523421
O8    O     O_R   0.439240 1.000000 0.175070 -0.523421
O9    O     O_R   1.000000 0.560760 0.824930 -0.523421
O10   O     O_R   0.000000 0.439240 0.175070 -0.523421
O11   O     O_R   0.439240 1.000000 0.824930 -0.523421
O12   O     O_3   0.500000 0.000000 0.750000 -0.473508
O13   O     O_R   0.560760 1.000000 0.175070 -0.523422
O14   O     O_R   0.414510 0.146130 0.269710 -0.524331
O15   O     O_R   0.585490 0.853870 0.730290 -0.524332
O16   O     O_R   0.853870 0.414510 0.269710 -0.523983
O17   O     O_R   0.146130 0.585490 0.730290 -0.523982
O18   O     O_R   0.585490 0.853870 0.269710 -0.524331
O19   O     O_R   0.414510 0.146130 0.730290 -0.524332
O20   O     O_R   0.146130 0.585490 0.269710 -0.523983
O21   O     O_R   0.853870 0.414510 0.730290 -0.523982
O22   O     O_R   0.414510 0.853870 0.730290 -0.523983
O23   O     O_3   1.000000 0.500000 0.250000 -0.473508
O24   O     O_R   0.585490 0.146130 0.269710 -0.523982
O25   O     O_R   0.853870 0.585490 0.730290 -0.524332
O26   O     O_R   0.146130 0.414510 0.269710 -0.524332
O27   O     O_R   0.585490 0.146130 0.730290 -0.523983
O28   O     O_R   0.414510 0.853870 0.269710 -0.523982
O29   O     O_R   0.146130 0.414510 0.730290 -0.524332
O30   O     O_R   0.853870 0.585490 0.269710 -0.524332
O31   O     O_R   0.914510 0.646130 0.769710 -0.524331
O32   O     O_R   0.085490 0.353870 0.230290 -0.524332
O33   O     O_R   0.353870 0.914510 0.769710 -0.523982
O34   O     O_3   1.000000 0.500000 0.750000 -0.473508
O35   O     O_R   0.646130 0.085490 0.230290 -0.523983
O36   O     O_R   0.085490 0.353870 0.769710 -0.524331
O37   O     O_R   0.914510 0.646130 0.230290 -0.524332
O38   O     O_R   0.646130 0.085490 0.769710 -0.523982
O39   O     O_R   0.353870 0.914510 0.230290 -0.523983
O40   O     O_R   0.914510 0.353870 0.230290 -0.523983
O41   O     O_R   0.085490 0.646130 0.769710 -0.523982
O42   O     O_R   0.353870 0.085490 0.230290 -0.524332
O43   O     O_R   0.646130 0.914510 0.769710 -0.524331
O44   O     O_R   0.085490 0.646130 0.230290 -0.523982
O45   O     O_R   0.500000 0.939240 0.324930 -0.523421
O46   O     O_R   0.914510 0.353870 0.769710 -0.523982
O47   O     O_R   0.646130 0.914510 0.230290 -0.524332
O48   O     O_R   0.353870 0.085490 0.769710 -0.524331
O49   O     O_R   0.500000 0.060760 0.675070 -0.523421
O50   O     O_R   0.060760 0.500000 0.324930 -0.523421
O51   O     O_R   0.939240 0.500000 0.675070 -0.523421
O52   O     O_R   0.500000 0.060760 0.324930 -0.523421
Zn1   Zn    Zn3+2 0.413200 0.000000 0.222070 0.998594
Zn2   Zn    Zn3+2 0.086800 0.500000 0.277930 0.998594
Zn3   Zn    Zn3+2 0.500000 0.913200 0.722070 0.998594
Zn4   Zn    Zn3+2 0.500000 0.086800 0.277930 0.998594
Zn5   Zn    Zn3+2 0.086800 0.500000 0.722070 0.998594
Zn6   Zn    Zn3+2 0.913200 0.500000 0.277930 0.998594
Zn7   Zn    Zn3+2 0.500000 0.086800 0.722070 0.998594
Zn8   Zn    Zn3+2 0.500000 0.913200 0.277930 0.998594
Zn9   Zn    Zn3+2 0.586800 1.000000 0.777930 0.998594
Zn10  Zn    Zn3+2 1.000000 0.413200 0.222070 0.998594
Zn11  Zn    Zn3+2 1.000000 0.586800 0.777930 0.998594
Zn12  Zn    Zn3+2 0.586800 0.000000 0.222070 0.998594
Zn13  Zn    Zn3+2 0.413200 1.000000 0.777930 0.998594
Zn14  Zn    Zn3+2 0.000000 0.586800 0.222070 0.998594
Zn15  Zn    Zn3+2 1.000000 0.413200 0.777930 0.998594
Zn16  Zn    Zn3+2 0.913200 0.500000 0.722070 0.998594

loop_
_geom_bond_atom_site_label_1
_geom_bond_atom_site_label_2
_ccdc_geom_bond_type
C59   N16   T    
C82   N39   T    
C22   C150  A    
C92   C133  A    
O31   Zn11  S    
C63   N20   T    
C14   C170  A    
O34   Zn16  S    
C57   C102  A    
C24   C98   A    
C31   C101  A    
C154  C158  A    
C124  O50   A    
C131  O15   A    
C6    C25   A    
C83   N40   T    
C52   N9    T    
C34   C148  S    
C151  C161  A    
C91   C122  A    
O21   Zn16  S    
C3    C19   A    
O41   Zn11  S    
C172  C175  A    
C38   N34   T    
O43   Zn9   S    
C23   C149  A    
C10   C162  A    
C82   C98   S    
C23   C143  S    
O37   Zn14  S    
C147  O37   A    
C109  C118  S    
C41   N46   T    
C134  O41   A    
C15   C173  A    
C133  H13   S    
C69   N26   T    
O32   Zn10  S    
C112  C120  S    
C74   N31   T    
C71   N28   T    
O49   Zn7   S    
C42   C156  S    
C9    C138  S    
C122  H12   S    
C138  O21   A    
C119  C120  T    
C51   C164  S    
C130  O14   A    
C87   C89   A    
C19   C153  A    
C16   C157  A    
C95   C166  A    
C105  C133  A    
C108  C166  A    
C68   H8    S    
C135  O18   A    
C12   C132  S    
C70   C79   S    
C100  C106  A    
C53   N10   T    
O42   Zn1   S    
C35   H5    S    
C146  O36   A    
C106  C115  S    
C89   H9    S    
C2    C96   A    
C58   C171  S    
O39   Zn1   S    
O9    Zn11  S    
O3    Zn6   S    
C62   C175  S    
C39   C152  S    
O23   Zn2   S    
O8    Zn1   S    
C17   C146  S    
C145  O28   A    
C61   N18   T    
C13   C97   A    
C132  O16   A    
C5    C21   A    
C19   C139  S    
O51   Zn16  S    
C107  C155  A    
C17   C175  A    
O46   Zn15  S    
C2    C109  A    
C24   C112  A    
C68   C103  A    
C37   C150  S    
O1    Zn4   S    
C131  O43   A    
O2    Zn3   S    
C3    C64   S    
C10   C169  A    
O19   Zn7   S    
O12   Zn13  S    
C40   N45   T    
C126  O9    A    
C73   C90   S    
C147  O30   A    
C29   C94   A    
C104  C122  A    
C31   C96   A    
C77   C94   S    
C33   C127  S    
C68   C112  A    
O23   Zn6   S    
C32   C126  S    
O44   Zn14  S    
C137  O44   A    
C94   C155  A    
C24   H4    S    
O27   Zn7   S    
C18   C154  A    
O7    Zn9   S    
C145  O39   A    
C90   C111  A    
O1    Zn8   S    
C132  O40   A    
C46   C101  A    
C128  O11   A    
C148  C164  A    
C64   N21   T    
O52   Zn4   S    
C15   C158  A    
C18   C147  S    
C8    C164  A    
O34   Zn5   S    
O35   Zn12  S    
O10   Zn10  S    
O16   Zn6   S    
C52   C165  S    
C4    C22   A    
O11   Zn13  S    
C22   C142  S    
C127  O6    A    
C27   C87   A    
C125  O51   A    
C93   C144  A    
C18   C174  A    
C6    C67   S    
O20   Zn2   S    
C75   N32   T    
O47   Zn12  S    
O45   Zn8   S    
C40   C153  S    
C16   C136  S    
C38   C151  S    
C56   C170  S    
C76   N33   T    
O50   Zn2   S    
C128  O7    A    
C107  C111  A    
C108  C117  S    
C61   C174  S    
C142  O26   A    
C129  O13   A    
C5    C66   S    
C43   C157  S    
C110  C119  S    
C50   N7    T    
C171  C176  A    
C70   N27   T    
O30   Zn6   S    
C14   C159  A    
C46   H6    S    
C31   C129  S    
C117  C118  T    
C17   C156  A    
C20   C176  A    
C144  H14   S    
C7    C23   A    
C72   N29   T    
C37   N23   T    
C21   C151  A    
C66   N24   T    
C107  C116  S    
C51   N8    T    
C104  C113  S    
O38   Zn9   S    
C56   N14   T    
C140  O24   A    
C89   C105  A    
C139  O33   A    
C2    H2    S    
C85   C102  S    
O5    Zn15  S    
O12   Zn3   S    
C44   C158  S    
C45   C159  S    
O34   Zn11  S    
C63   C176  S    
O12   Zn7   S    
C140  O35   A    
O1    Zn1   S    
C39   N44   T    
C11   C161  A    
C125  O4    A    
C5    C168  A    
C9    C163  A    
C60   N17   T    
C7    C165  A    
C83   C99   S    
C126  O5    A    
C60   C173  S    
O25   Zn16  S    
C26   C124  S    
C55   N13   T    
C29   C90   A    
O34   Zn15  S    
C12   C171  A    
C150  C162  A    
C30   C128  S    
C85   N42   T    
O23   Zn10  S    
C47   N4    T    
C67   N25   T    
O15   Zn3   S    
C54   C168  S    
C48   C161  S    
C26   C91   A    
C143  O38   A    
C20   C152  A    
C8    C137  S    
C74   C91   S    
C10   C130  S    
C30   C95   A    
C8    C167  A    
C76   C93   S    
C57   C110  A    
C78   C95   S    
C136  O19   A    
C121  O45   A    
C12   C160  A    
C124  O3    A    
C88   C100  A    
O1    Zn12  S    
C71   C87   S    
O6    Zn14  S    
C34   N1    T    
O17   Zn5   S    
C77   N35   T    
C81   N38   T    
C11   C168  A    
C59   C172  S    
C113  C114  T    
C50   C163  S    
C33   C103  A    
C121  O52   A    
C146  O29   A    
O23   Zn14  S    
C42   N47   T    
C3    C170  A    
C111  H11   S    
C26   C79   A    
O26   Zn2   S    
C127  O10   A    
O40   Zn10  S    
C20   C140  S    
C9    C165  A    
C21   C141  S    
C65   N22   T    
C27   C125  S    
C134  O17   A    
C29   C123  S    
C25   C148  A    
C166  H16   S    
C141  O31   A    
C123  O49   A    
O48   Zn13  S    
C43   N48   T    
O28   Zn8   S    
C46   C109  A    
C28   C93   A    
O12   Zn9   S    
O24   Zn4   S    
O13   Zn12  S    
C55   C169  S    
C115  C116  T    
C129  O8    A    
C45   N3    T    
C152  C160  A    
C80   N37   T    
O29   Zn5   S    
C173  C174  A    
C73   N30   T    
C156  C157  A    
O36   Zn15  S    
O14   Zn4   S    
C4    C65   S    
C36   C149  S    
C15   C135  S    
C32   C97   A    
C33   C98   A    
C49   N6    T    
C35   C108  A    
C1    H1    S    
C53   C167  S    
O18   Zn8   S    
C28   C88   A    
C62   N19   T    
C149  C163  A    
C80   C96   S    
C84   C101  S    
C35   C99   A    
C86   C103  S    
C72   C88   S    
O4    Zn5   S    
C47   C160  S    
C78   N36   T    
C4    C169  A    
C105  C114  S    
O33   Zn13  S    
C28   C121  S    
C14   C134  S    
C13   H3    S    
C30   C99   A    
C141  O25   A    
C153  C159  A    
C100  H10   S    
C13   C110  A    
C16   C172  A    
C27   C92   A    
C1    C104  A    
C49   C162  S    
C155  H15   S    
C75   C92   S    
C32   C102  A    
C135  O47   A    
C136  O48   A    
C57   H7    S    
C41   C154  S    
C137  O20   A    
C6    C167  A    
C11   C131  S    
C7    C69   S    
C106  C144  A    
C138  O46   A    
C44   N2    T    
C86   N43   T    
C48   N5    T    
C84   N41   T    
C130  O42   A    
C54   N11   T    
C81   C97   S    
C58   N15   T    
C1    C79   A    
C143  O27   A    
C142  O32   A    
C139  O22   A    
O22   Zn3   S    
C25   C145  S    
C36   N12   T    
C123  O2    A    
