data_mof_unit_pretest_463.cif
_audit_creation_date              2012-12-10T18:57:05-0500
_audit_creation_method            fapswitch 2.2
_symmetry_space_group_name_H-M    P1
_symmetry_Int_Tables_number       1
_space_group_crystal_system       triclinic
_cell_length_a                    10.743803
_cell_length_b                    9.862462
_cell_length_c                    11.07913
_cell_angle_alpha                 89.982342
_cell_angle_beta                  88.665025
_cell_angle_gamma                 89.74311
_cell_volume                      1173.61801861

loop_
_atom_site_label
_atom_site_type_symbol
_atom_type_description
_atom_site_fract_x
_atom_site_fract_y
_atom_site_fract_z
_atom_type_partial_charge
C1    C     C_R   0.259836 0.500225 0.514525 0.953917
C2    C     C_R   0.740242 0.499694 0.485700 0.911858
C3    C     C_R   0.600714 0.071773 0.537863 -0.055324
C4    C     C_R   0.399304 0.072809 0.462009 -0.057423
C5    C     C_R   0.602463 0.928887 0.533089 0.122001
C6    C     C_R   0.397781 0.929917 0.466284 0.121610
C7    C     C_R   0.498379 0.500236 0.260057 0.873640
C8    C     C_R   0.501541 0.500220 0.739926 0.930235
C9    C     C_R   0.498124 0.620163 0.061167 -0.090946
C10   C     C_R   0.504524 0.620144 0.938546 -0.027507
C11   C     C_R   0.497939 0.500354 0.128546 -0.082072
C12   C     C_R   0.503961 0.500315 0.871325 -0.055560
C13   C     C_R   0.500691 0.377187 0.063469 -0.107722
C14   C     C_R   0.502628 0.377166 0.936481 -0.126456
C15   C     C_3   0.505906 0.771982 0.928234 0.461890
C16   C     C_3   0.490626 0.771862 0.070788 0.433954
C17   C     C_R   0.060926 0.377056 0.523262 0.122339
C18   C     C_R   0.940226 0.376049 0.482235 0.128824
C19   C     C_R   0.875130 0.499158 0.472726 -0.239133
C20   C     C_R   0.125031 0.500539 0.528004 -0.229643
C21   C     C_R   0.939469 0.622342 0.477981 0.140976
C22   C     C_R   0.059748 0.623299 0.518325 0.142299
H1    H     H_    0.500749 0.280655 0.110132 0.197813
H2    H     H_    0.502817 0.280631 0.889882 0.197017
H3    H     H_    0.680266 0.125194 0.571316 0.170558
H4    H     H_    0.319546 0.127024 0.428861 0.168817
H5    H     H_    0.686356 0.877028 0.555681 0.186654
H6    H     H_    0.314618 0.878829 0.442018 0.187413
N1    N     N_R   0.500000 0.857200 0.500000 -0.060621
N2    N     N_R   0.500000 0.142810 0.500000 -0.101347
O1    O     O_R   0.316770 0.614620 0.499990 -0.584754
O2    O     O_R   0.683230 0.614620 0.500010 -0.601709
O3    O     O_R   0.316800 0.385290 0.500000 -0.619301
O4    O     O_R   0.683200 0.385290 0.500000 -0.613834
O5    O     O_R   0.500000 0.614690 0.316780 -0.559569
O6    O     O_R   0.500000 0.614690 0.683220 -0.527114
O7    O     O_R   0.500020 0.385360 0.316780 -0.626366
O8    O     O_R   0.499980 0.385360 0.683220 -0.638462
Zn1   Zn    Zn3+2 0.500000 0.653120 0.500000 1.124943
Zn2   Zn    Zn3+2 0.500000 0.346880 0.500000 1.016294
S1    S     S_3+6 0.654781 0.827203 0.861341 0.111290
O9    O     O_2   0.764624 0.779947 0.931044 -0.147890
O10   O     O_2   0.673515 0.768413 0.738316 -0.323297
O11   O     O_3   0.659305 0.997457 0.851400 -0.483112
H7    H     H_    0.590701 0.023097 0.797773 0.358044
S2    S     S_3+6 0.339792 0.821576 0.137343 0.116206
O12   O     O_2   0.232831 0.767238 0.068080 -0.192584
O13   O     O_2   0.323420 0.765185 0.261522 -0.307216
O14   O     O_3   0.327722 0.991629 0.144471 -0.472233
H8    H     H_    0.391984 0.020661 0.201424 0.356202
S3    S     S_3+6 0.374559 0.835345 0.845588 0.082785
O15   O     O_2   0.321056 0.961826 0.902179 -0.217682
O16   O     O_2   0.413808 0.871202 0.720067 -0.311979
O17   O     O_3   0.265728 0.713363 0.838568 -0.531196
H9    H     H_    0.184892 0.760115 0.852170 0.424526
S4    S     S_3+6 0.619045 0.842452 0.151990 0.097716
O18   O     O_2   0.661066 0.974075 0.096817 -0.181937
O19   O     O_2   0.580697 0.872223 0.279004 -0.334482
O20   O     O_3   0.738767 0.731812 0.153186 -0.457711
H10   H     H_    0.711846 0.657010 0.207019 0.338699
I1    I     I_    0.125211 0.201620 0.616248 -0.158647
I2    I     I_    0.879169 0.197214 0.393737 -0.158187
I3    I     I_    0.878697 0.801113 0.389320 -0.075115
I4    I     I_    0.118911 0.805688 0.600781 -0.120390

loop_
_geom_bond_atom_site_label_1
_geom_bond_atom_site_label_2
_ccdc_geom_bond_type
C3    N2    A    
O5    Zn1   S    
C16   S4    S    
C15   S3    S    
S4    O19   D    
C11   C13   A    
S1    O9    D    
C4    H4    S    
S4    O20   S    
C3    H3    S    
C8    C12   S    
S3    O17   S    
N1    Zn1   S    
C17   C18   A    
C7    O7    A    
C1    O3    A    
O20   H10   S    
S2    O12   D    
C21   C22   A    
S4    O18   D    
C7    C11   S    
S1    O10   D    
S2    O14   S    
C2    O4    A    
C8    O8    A    
O4    Zn2   S    
C10   C12   A    
C9    C10   A    
C4    C6    A    
O8    Zn2   S    
C9    C16   S    
C12   C14   A    
O14   H8    S    
O7    Zn2   S    
C5    N1    A    
C10   C15   S    
C9    C11   A    
C16   S2    S    
S1    O11   S    
S2    O13   D    
C21   I3    S    
O3    Zn2   S    
C20   C22   A    
S3    O16   D    
C22   I4    S    
C15   C16   S    
C3    C5    A    
C6    H6    S    
C1    O1    A    
C6    N1    A    
O11   H7    S    
C15   S1    S    
C2    O2    A    
C18   C19   A    
C8    O6    A    
O2    Zn1   S    
C14   H2    S    
N2    Zn2   S    
O17   H9    S    
C18   I2    S    
C1    C20   S    
C13   C14   A    
C17   I1    S    
C2    C19   S    
C5    H5    S    
C7    O5    A    
C17   C20   A    
O6    Zn1   S    
C4    N2    A    
S3    O15   D    
O1    Zn1   S    
C19   C21   A    
C13   H1    S    
