data_mof_unit_pretest_1341.cif
_audit_creation_date              2012-12-11T14:29:49-0500
_audit_creation_method            fapswitch 2.2
_symmetry_space_group_name_H-M    P1
_symmetry_Int_Tables_number       1
_space_group_crystal_system       triclinic
_cell_length_a                    6.940454
_cell_length_b                    14.737684
_cell_length_c                    16.238951
_cell_angle_alpha                 90.460559
_cell_angle_beta                  90.004698
_cell_angle_gamma                 89.990984
_cell_volume                      1660.96719182

loop_
_atom_site_label
_atom_site_type_symbol
_atom_type_description
_atom_site_fract_x
_atom_site_fract_y
_atom_site_fract_z
_atom_type_partial_charge
O1    O     O_R   0.494400 0.416610 0.413880 -0.542833
O2    O     O_R   0.823920 0.406790 0.585520 -0.540466
O3    O     O_R   0.994250 0.583390 0.586120 -0.536523
C1    C     C_R   0.654694 0.385142 0.613594 0.745269
O4    O     O_R   0.824110 0.405730 0.414490 -0.541268
O5    O     O_R   0.994440 0.582310 0.413870 -0.540281
C2    C     C_R   0.654874 0.383698 0.386326 0.742935
O6    O     O_R   0.494210 0.417690 0.586130 -0.545850
O7    O     O_3   0.660810 0.557940 0.500000 -0.370126
V1    V     V_3+5 0.935650 0.489250 0.500000 1.409205
O8    O     O_R   0.324160 0.593210 0.414480 -0.544633
C3    C     C_R   0.155430 0.614996 0.386355 0.736468
O9    O     O_R   0.323970 0.594270 0.585510 -0.538757
C4    C     C_R   0.155116 0.616175 0.613890 0.695026
V2    V     V_3+5 0.435660 0.510750 0.500000 1.408470
O10   O     O_3   0.160630 0.442060 0.500000 -0.373993
H1    H     H_    0.833603 0.893497 0.519679 0.114550
C5    C     C_R   0.311686 0.578504 0.775614 -0.141861
C6    C     C_R   0.387037 0.557799 0.852706 -0.123894
C7    C     C_R   0.374326 0.620304 0.916939 -0.119724
C8    C     C_R   0.286339 0.704050 0.904572 -0.131174
C9    C     C_R   0.210764 0.727711 0.826635 0.069655
C10   C     C_R   0.223560 0.663495 0.760699 0.070008
C11   C     C_R   0.119693 0.812794 0.814355 -0.185715
C12   C     C_R   0.041247 0.833448 0.735954 0.069463
C13   C     C_R   0.053984 0.769220 0.670022 0.069283
C14   C     C_R   0.145001 0.684114 0.682307 -0.185921
C15   C     C_R   0.953340 0.918494 0.721030 -0.142105
C16   C     C_R   0.878161 0.939245 0.643919 -0.124984
C17   C     C_R   0.890730 0.876713 0.579696 -0.121200
C18   C     C_R   0.978464 0.792904 0.592081 -0.131432
H2    H     H_    0.322172 0.526651 0.728356 0.110604
H3    H     H_    0.431555 0.603548 0.976943 0.113098
H4    H     H_    0.276837 0.749350 0.957125 0.107146
H5    H     H_    0.942943 0.970358 0.768286 0.111047
H6    H     H_    0.811220 0.004580 0.633803 0.119445
H7    H     H_    0.987867 0.747583 0.539538 0.108350
C19   C     C_2   0.985364 0.709826 0.283062 -0.133957
C20   C     C_2   0.150304 0.682724 0.319486 -0.312720
H8    H     H_    0.849379 0.681868 0.304095 0.136678
H9    H     H_    0.287919 0.710105 0.300559 0.128346
C21   C     C_2   0.973077 0.777274 0.215056 -0.134198
C22   C     C_2   0.126265 0.814502 0.177114 -0.311179
H10   H     H_    0.829119 0.796279 0.195427 0.134430
H11   H     H_    0.271350 0.796140 0.194916 0.128820
C23   C     C_2   0.779307 0.207746 0.781170 -0.138601
C24   C     C_2   0.614155 0.179520 0.816546 -0.312412
H12   H     H_    0.915365 0.179671 0.802037 0.135349
C25   C     C_2   0.791343 0.276133 0.714111 -0.134129
C26   C     C_2   0.638243 0.317763 0.680121 -0.313098
H13   H     H_    0.934900 0.292366 0.692060 0.134907
H14   H     H_    0.493454 0.302907 0.700732 0.127080
C27   C     C_2   0.779172 0.208967 0.213971 -0.130551
C28   C     C_2   0.614064 0.181853 0.177392 -0.311102
H15   H     H_    0.914987 0.180263 0.193126 0.137158
H16   H     H_    0.476562 0.209866 0.196095 0.127251
C29   C     C_2   0.791645 0.277450 0.281912 -0.136269
C30   C     C_2   0.638299 0.315452 0.319540 -0.308751
H17   H     H_    0.935591 0.296528 0.301767 0.135075
H18   H     H_    0.493207 0.297032 0.301588 0.129013
O11   O     O_R   0.770210 0.079270 0.910680 -0.541400
O12   O     O_R   0.440150 0.091160 0.082270 -0.545590
O13   O     O_R   0.269970 0.914530 0.082860 -0.544495
C31   C     C_R   0.608814 0.113252 0.110491 0.743756
O14   O     O_R   0.440480 0.090100 0.911240 -0.545049
O15   O     O_R   0.270310 0.913460 0.910610 -0.536696
C32   C     C_R   0.609151 0.111706 0.883089 0.745351
O16   O     O_R   0.769870 0.080340 0.082930 -0.538613
O17   O     O_3   0.603660 0.938980 0.996790 -0.369960
V3    V     V_3+5 0.328750 0.007610 0.996740 1.402320
O18   O     O_R   0.940600 0.902510 0.911180 -0.539017
C33   C     C_R   0.109483 0.880691 0.882789 0.694411
O19   O     O_R   0.940270 0.903570 0.082200 -0.540204
C34   C     C_R   0.109548 0.881875 0.110353 0.736266
V4    V     V_3+5 0.828770 0.986010 0.996670 1.414947
O20   O     O_3   0.103730 0.054750 0.996710 -0.374077
H19   H     H_    0.476155 0.205944 0.797067 0.127611
H20   H     H_    0.454226 0.492522 0.862810 0.116019

loop_
_geom_bond_atom_site_label_1
_geom_bond_atom_site_label_2
_ccdc_geom_bond_type
O18   V4    S    
O19   C34   A    
C6    C7    A    
C1    O6    A    
C20   H9    S    
C27   C28   D    
O11   V4    S    
O16   V4    S    
C23   C25   S    
C13   C14   A    
C31   O16   A    
C15   C16   A    
C19   C21   S    
O5    C3    A    
C17   C18   A    
C29   H17   S    
C30   H18   S    
O14   V3    S    
O12   V3    S    
C5    C6    A    
O12   C31   A    
O8    V2    S    
O15   C33   A    
C15   H5    S    
O14   C32   A    
C26   H14   S    
O1    V2    S    
C10   C14   A    
C4    C14   S    
O7    V1    S    
C2    C30   S    
C22   C34   S    
C13   C18   A    
C8    C9    A    
H1    C17   S    
O19   V4    S    
C21   H10   S    
C24   C32   S    
C23   H12   S    
C27   H15   S    
C19   C20   D    
C28   H16   S    
C5    C10   A    
C11   C12   A    
O4    C2    A    
C27   C29   S    
C8    H4    S    
C25   H13   S    
C12   C13   A    
C18   H7    S    
C1    C26   S    
C12   C15   A    
C6    H20   S    
O2    C1    A    
V4    O20   S    
C16   C17   A    
O11   C32   A    
C16   H6    S    
O13   V3    S    
C22   H11   S    
O3    C4    A    
C7    H3    S    
O6    V2    S    
O9    V2    S    
V3    O20   S    
C9    C11   A    
C5    H2    S    
C21   C22   D    
C24   H19   S    
O2    V1    S    
C11   C33   S    
C23   C24   D    
O1    C2    A    
O5    V1    S    
O8    C3    A    
O13   C34   A    
C3    C20   S    
O7    V2    S    
O4    V1    S    
O3    V1    S    
V1    O10   S    
C19   H8    S    
C29   C30   D    
O15   V3    S    
C28   C31   S    
O17   V4    S    
O17   V3    S    
O18   C33   A    
C7    C8    A    
C25   C26   D    
C9    C10   A    
O9    C4    A    
V2    O10   S    
