data_mof_unit_pretest_1739.cif
_audit_creation_date              2012-12-10T19:17:28-0500
_audit_creation_method            fapswitch 2.2
_symmetry_space_group_name_H-M    P1
_symmetry_Int_Tables_number       1
_space_group_crystal_system       triclinic
_cell_length_a                    22.265319
_cell_length_b                    22.298738
_cell_length_c                    14.98394
_cell_angle_alpha                 90.000958
_cell_angle_beta                  89.99986
_cell_angle_gamma                 90.000071
_cell_volume                      7439.35411639

loop_
_atom_site_label
_atom_site_type_symbol
_atom_type_description
_atom_site_fract_x
_atom_site_fract_y
_atom_site_fract_z
_atom_type_partial_charge
C1    C     C_R   0.081109 0.419007 0.499999 0.900521
C2    C     C_R   0.081109 0.580993 0.500000 0.900428
C3    C     C_R   0.581109 0.919007 0.499999 0.900436
C4    C     C_R   0.581109 0.080993 0.500000 0.900523
C5    C     C_1   0.163110 0.663122 0.500003 -0.120026
C6    C     C_1   0.163113 0.336880 0.499999 -0.119775
C7    C     C_1   0.663110 0.163121 0.500001 -0.119783
C8    C     C_1   0.663112 0.836881 0.499998 -0.120029
C9    C     C_1   0.836775 0.337035 0.500000 -0.102389
C10   C     C_1   0.836776 0.662965 0.500002 -0.102861
C11   C     C_1   0.336773 0.837036 0.500000 -0.102844
C12   C     C_1   0.336776 0.162967 0.500002 -0.102401
C13   C     C_1   0.874425 0.374646 0.499999 -0.146860
C14   C     C_1   0.874425 0.625354 0.500002 -0.147508
C15   C     C_1   0.374424 0.874646 0.499999 -0.147490
C16   C     C_1   0.374426 0.125356 0.500002 -0.146885
C17   C     C_3   0.029790 0.444628 0.051955 -0.418348
C18   C     C_3   0.029497 0.444447 0.948040 -0.419367
C19   C     C_3   0.027908 0.556370 0.051959 -0.419458
C20   C     C_3   0.028207 0.556196 0.948045 -0.418456
C21   C     C_3   0.528261 0.943831 0.051955 -0.418447
C22   C     C_3   0.527962 0.943657 0.948040 -0.419467
C23   C     C_3   0.529442 0.055582 0.051959 -0.419367
C24   C     C_3   0.529737 0.055400 0.948045 -0.418348
C25   C     C_3   0.995731 0.499946 0.089926 0.078904
C26   C     C_3   0.995731 0.499937 0.910074 0.078908
C27   C     C_3   0.495731 0.000059 0.089926 0.078900
C28   C     C_3   0.495730 0.000049 0.910074 0.078913
C29   C     C_3   0.929174 0.499151 0.946088 0.426273
C30   C     C_3   0.929178 0.498849 0.053912 0.426272
C31   C     C_3   0.429177 0.001084 0.946089 0.426274
C32   C     C_3   0.429173 0.000780 0.053912 0.426270
C33   C     C_1   0.998439 0.499978 0.809226 0.143542
C34   C     C_1   0.998439 0.499982 0.190774 0.143548
C35   C     C_1   0.498439 0.000017 0.809226 0.143544
C36   C     C_1   0.498439 0.000020 0.190774 0.143546
C37   C     C_R   0.918898 0.419025 0.500000 0.906978
C38   C     C_R   0.918897 0.580974 0.500000 0.906881
C39   C     C_R   0.418898 0.919026 0.500000 0.906880
C40   C     C_R   0.418898 0.080975 0.500000 0.906970
C41   C     C_3   0.799044 0.250087 0.582270 -0.384506
C42   C     C_3   0.796045 0.253071 0.414097 -0.383270
C43   C     C_3   0.796974 0.747855 0.584845 -0.384076
C44   C     C_3   0.798144 0.749016 0.416573 -0.384584
C45   C     C_3   0.296183 0.752936 0.585750 -0.383817
C46   C     C_3   0.298909 0.750219 0.417556 -0.384818
C47   C     C_3   0.295098 0.245987 0.586929 -0.382919
C48   C     C_3   0.299944 0.250808 0.418944 -0.384878
C49   C     C_3   0.249957 0.701187 0.417559 -0.393535
C50   C     C_3   0.247230 0.703905 0.585749 -0.393531
C51   C     C_3   0.250991 0.299839 0.418945 -0.393522
C52   C     C_3   0.246144 0.295018 0.586926 -0.393550
C53   C     C_3   0.747092 0.204040 0.414099 -0.393544
C54   C     C_3   0.750091 0.201056 0.582269 -0.393522
C55   C     C_3   0.749192 0.798047 0.416573 -0.393516
C56   C     C_3   0.748021 0.796886 0.584842 -0.393540
C57   C     C_1   0.125514 0.625452 0.500002 -0.176695
C58   C     C_1   0.125515 0.374549 0.499999 -0.176414
C59   C     C_1   0.625513 0.125451 0.500001 -0.176417
C60   C     C_1   0.625514 0.874550 0.499998 -0.176683
C61   C     C_3   0.791124 0.291347 0.500000 0.333787
C62   C     C_3   0.791125 0.708653 0.500001 0.334452
C63   C     C_3   0.291123 0.791349 0.500001 0.334432
C64   C     C_3   0.291126 0.208655 0.500002 0.333787
C65   C     C_3   0.208741 0.708838 0.500003 0.349938
C66   C     C_3   0.208744 0.291165 0.500000 0.349575
C67   C     C_3   0.708742 0.208837 0.500001 0.349580
C68   C     C_3   0.708743 0.791165 0.499999 0.349936
C69   C     C_3   0.179177 0.771648 0.496698 -0.394112
C70   C     C_3   0.179239 0.228412 0.494130 -0.393907
C71   C     C_3   0.679185 0.271642 0.503634 -0.393920
C72   C     C_3   0.679158 0.728333 0.498583 -0.394116
C73   C     C_3   0.728141 0.320674 0.503634 -0.385829
C74   C     C_3   0.728114 0.679301 0.498584 -0.385777
C75   C     C_3   0.228133 0.820681 0.496698 -0.385761
C76   C     C_3   0.228195 0.179380 0.494131 -0.385800
H1    H     H_    0.268745 0.658905 0.589544 0.170144
H2    H     H_    0.271518 0.656142 0.418525 0.169863
H3    H     H_    0.267600 0.339958 0.592568 0.170336
H4    H     H_    0.272528 0.344861 0.421762 0.169805
H5    H     H_    0.771651 0.156012 0.581065 0.169896
H6    H     H_    0.768601 0.159047 0.410067 0.170228
H7    H     H_    0.769565 0.841914 0.587278 0.170061
H8    H     H_    0.770756 0.843095 0.416178 0.169933
H9    H     H_    0.844222 0.228699 0.581070 0.171427
H10   H     H_    0.841172 0.231733 0.410062 0.172145
H11   H     H_    0.842135 0.769227 0.587284 0.171722
H12   H     H_    0.843325 0.770408 0.416175 0.171445
H13   H     H_    0.341317 0.731592 0.589547 0.171893
H14   H     H_    0.344089 0.728829 0.418519 0.171304
H15   H     H_    0.340172 0.267272 0.592573 0.172379
H16   H     H_    0.345099 0.272174 0.421758 0.171238
H17   H     H_    0.790674 0.282004 0.354067 0.189120
H18   H     H_    0.795859 0.276845 0.644827 0.188731
H19   H     H_    0.794282 0.721584 0.354751 0.188444
H20   H     H_    0.792260 0.719577 0.645683 0.188623
H21   H     H_    0.295622 0.777076 0.355107 0.188373
H22   H     H_    0.290908 0.781774 0.645901 0.188693
H23   H     H_    0.297449 0.224737 0.355679 0.188569
H24   H     H_    0.289071 0.216401 0.646112 0.189180
H25   H     H_    0.223049 0.704386 0.355110 0.176959
H26   H     H_    0.218335 0.709084 0.645901 0.177105
H27   H     H_    0.224876 0.297427 0.355679 0.177112
H28   H     H_    0.216497 0.289091 0.646109 0.177375
H29   H     H_    0.718100 0.209314 0.354069 0.177339
H30   H     H_    0.723285 0.204156 0.644826 0.177175
H31   H     H_    0.721710 0.794275 0.354751 0.177002
H32   H     H_    0.719686 0.792267 0.645679 0.177065
H33   H     H_    0.723767 0.348614 0.564872 0.180762
H34   H     H_    0.721631 0.350741 0.445108 0.179603
H35   H     H_    0.722245 0.649874 0.557975 0.179859
H36   H     H_    0.723079 0.650701 0.438138 0.180309
H37   H     H_    0.221718 0.850654 0.555356 0.179573
H38   H     H_    0.223660 0.848720 0.435577 0.180597
H39   H     H_    0.221046 0.148677 0.551757 0.179257
H40   H     H_    0.224498 0.152112 0.432127 0.181125
H41   H     H_    0.149140 0.777966 0.555355 0.174137
H42   H     H_    0.151082 0.776031 0.435578 0.174576
H43   H     H_    0.148468 0.221366 0.551755 0.174095
H44   H     H_    0.151920 0.224800 0.432127 0.174916
H45   H     H_    0.651189 0.275927 0.564870 0.174758
H46   H     H_    0.649054 0.278052 0.445107 0.174247
H47   H     H_    0.649668 0.722562 0.557972 0.174261
H48   H     H_    0.650502 0.723389 0.438137 0.174464
H49   H     H_    0.076683 0.444468 0.923490 0.182348
H50   H     H_    0.077112 0.445205 0.075908 0.182569
H51   H     H_    0.075526 0.556959 0.924091 0.182555
H52   H     H_    0.075076 0.557684 0.076509 0.182336
H53   H     H_    0.575131 0.942387 0.923489 0.182332
H54   H     H_    0.575582 0.943115 0.075907 0.182554
H55   H     H_    0.577059 0.054868 0.924092 0.182570
H56   H     H_    0.576628 0.055608 0.076510 0.182350
H57   H     H_    0.006135 0.598054 0.076492 0.217416
H58   H     H_    0.007017 0.598019 0.922915 0.216880
H59   H     H_    0.009795 0.402222 0.077085 0.216975
H60   H     H_    0.008915 0.402162 0.923508 0.217505
H61   H     H_    0.508818 0.097846 0.076491 0.217504
H62   H     H_    0.509702 0.097787 0.922914 0.216971
H63   H     H_    0.507114 0.901987 0.077086 0.216882
H64   H     H_    0.506227 0.901951 0.923510 0.217419
N1    N     N_1   0.999850 0.500000 0.731150 -0.073888
N2    N     N_1   0.999850 0.500000 0.268850 -0.073886
N3    N     N_1   0.499850 1.000000 0.731150 -0.073888
N4    N     N_1   0.499850 0.000000 0.268850 -0.073886
O1    O     O_R   0.061440 0.438650 0.574260 -0.616514
O2    O     O_R   0.061440 0.438650 0.425740 -0.616469
O3    O     O_R   0.061440 0.561350 0.574260 -0.616686
O4    O     O_R   0.061440 0.561350 0.425740 -0.616711
O5    O     O_R   0.561440 0.938650 0.574260 -0.616712
O6    O     O_R   0.561440 0.938650 0.425740 -0.616677
O7    O     O_R   0.561440 0.061350 0.574260 -0.616479
O8    O     O_R   0.561440 0.061350 0.425740 -0.616519
O9    O     O_R   0.938580 0.438650 0.574260 -0.596732
O10   O     O_R   0.938580 0.438650 0.425740 -0.596717
O11   O     O_R   0.938580 0.561350 0.574260 -0.597094
O12   O     O_R   0.938580 0.561350 0.425740 -0.597124
O13   O     O_R   0.438580 0.938650 0.574260 -0.597123
O14   O     O_R   0.438580 0.938650 0.425740 -0.597067
O15   O     O_R   0.438580 0.061350 0.574260 -0.596733
O16   O     O_R   0.438580 0.061350 0.425740 -0.596737
Zn1   Zn    Zn3+2 0.000010 0.500000 0.599130 1.005129
Zn2   Zn    Zn3+2 0.000010 0.500000 0.400870 1.005134
Zn3   Zn    Zn3+2 0.500010 1.000000 0.599130 1.005121
Zn4   Zn    Zn3+2 0.500010 0.000000 0.400870 1.005142
Br1   Br    Br    0.887335 0.429296 0.105891 -0.424783
Br2   Br    Br    0.886690 0.430275 0.893277 -0.423829
Br3   Br    Br    0.884758 0.566496 0.106723 -0.423886
Br4   Br    Br    0.885374 0.567493 0.894110 -0.424802
Br5   Br    Br    0.385441 0.932395 0.105888 -0.424761
Br6   Br    Br    0.384820 0.933395 0.893276 -0.423939
Br7   Br    Br    0.386621 0.069614 0.106725 -0.423797
Br8   Br    Br    0.387268 0.070598 0.894112 -0.424802

loop_
_geom_bond_atom_site_label_1
_geom_bond_atom_site_label_2
_ccdc_geom_bond_type
C32   Br5   S    
N1    Zn1   S    
C42   H17   S    
C6    C58   T    
C71   H46   S    
C1    O1    A    
C19   C20   S    
C18   C26   S    
C41   C61   S    
N4    Zn4   S    
C55   C68   S    
C2    C57   S    
C73   H34   S    
O11   Zn1   S    
O2    Zn2   S    
C46   C49   S    
C49   C65   S    
C9    C61   S    
O16   Zn4   S    
C29   Br4   S    
C24   H62   S    
C30   Br3   S    
C11   C63   S    
C45   H22   S    
C42   C53   S    
C49   H25   S    
C12   C64   S    
C65   C69   S    
C17   H50   S    
C48   C64   S    
C31   Br8   S    
C51   H27   S    
C22   H64   S    
C69   H42   S    
C76   H39   S    
C49   H2    S    
C7    C59   T    
C4    O7    A    
C9    C13   T    
C51   H4    S    
C56   H32   S    
C40   O15   A    
C11   C15   T    
C48   C51   S    
C52   H28   S    
C19   H52   S    
C12   C16   T    
C28   C35   S    
C70   H44   S    
C17   H59   S    
C23   C24   S    
C18   H60   S    
O5    Zn3   S    
C38   O12   A    
C52   H3    S    
C45   H13   S    
O13   Zn3   S    
C13   C37   S    
O14   Zn4   S    
C25   C34   S    
C3    C60   S    
C21   C27   S    
O12   Zn2   S    
C22   C28   S    
C21   C22   S    
C39   O13   A    
C1    O2    A    
C10   C62   S    
C38   O11   A    
C53   C67   S    
N3    Zn3   S    
C40   O16   A    
C17   C18   S    
C28   C31   S    
C4    O8    A    
C3    O5    A    
C54   H30   S    
C37   O9    A    
C74   H36   S    
C20   H51   S    
C5    C65   S    
C10   C14   T    
C47   C64   S    
C71   C73   S    
C75   H37   S    
C54   C67   S    
C44   C62   S    
C2    O3    A    
C56   C68   S    
C32   Br7   S    
C45   C63   S    
C47   H24   S    
C55   H31   S    
C53   H6    S    
C51   C66   S    
C29   Br2   S    
O1    Zn1   S    
C29   C30   S    
C14   C38   S    
C26   C33   S    
C41   H18   S    
C70   H43   S    
C68   C72   S    
C33   N1    T    
C43   H20   S    
C64   C76   S    
C75   H38   S    
C73   H33   S    
C21   H54   S    
C42   C61   S    
C15   C39   S    
O8    Zn4   S    
C16   C40   S    
C42   H10   S    
O4    Zn2   S    
C72   C74   S    
C46   H21   S    
C50   H26   S    
C23   C27   S    
C41   H9    S    
C22   H53   S    
O3    Zn1   S    
O15   Zn3   S    
C21   H63   S    
C50   H1    S    
O10   Zn2   S    
C74   H35   S    
C52   C66   S    
C63   C75   S    
C56   H7    S    
C25   C30   S    
C48   H23   S    
C34   N2    T    
C3    O6    A    
C61   C73   S    
C27   C32   S    
C47   H15   S    
C37   O10   A    
C71   H45   S    
C31   C32   S    
C24   C28   S    
C30   Br1   S    
N2    Zn2   S    
C8    C68   S    
C47   C52   S    
C46   H14   S    
C31   Br6   S    
C27   C36   S    
C19   H57   S    
O6    Zn4   S    
O7    Zn3   S    
C5    C57   T    
C46   C63   S    
C43   H11   S    
C36   N4    T    
C17   C25   S    
C72   H47   S    
C39   O14   A    
C44   H19   S    
C1    C58   S    
C8    C60   T    
C70   C76   S    
C24   H55   S    
C66   C70   S    
C20   C26   S    
C45   C50   S    
C23   H61   S    
C4    C59   S    
C69   H41   S    
C18   H49   S    
C76   H40   S    
C23   H56   S    
C69   C75   S    
C44   C55   S    
C67   C71   S    
C19   C25   S    
C50   C65   S    
C41   C54   S    
C7    C67   S    
C53   H29   S    
C43   C56   S    
C6    C66   S    
C26   C29   S    
C48   H16   S    
O9    Zn1   S    
C62   C74   S    
C20   H58   S    
C55   H8    S    
C44   H12   S    
C2    O4    A    
C54   H5    S    
C72   H48   S    
C43   C62   S    
C35   N3    T    
