data_mof_unit_pretest_668.cif
_audit_creation_date              2013-03-05T15:52:29-0500
_audit_creation_method            fapswitch 2.2
_symmetry_space_group_name_H-M    P1
_symmetry_Int_Tables_number       1
_space_group_crystal_system       triclinic
_cell_length_a                    27.807855
_cell_length_b                    10.85358
_cell_length_c                    9.569428
_cell_angle_alpha                 89.786646
_cell_angle_beta                  89.97547
_cell_angle_gamma                 92.479526
_cell_volume                      2885.47020087

loop_
_atom_site_label
_atom_site_type_symbol
_atom_site_description
_atom_site_fract_x
_atom_site_fract_y
_atom_site_fract_z
_atom_type_partial_charge
O1    O     O_R   0.500000 0.319640 0.618810 -0.588269
O2    O     O_R   0.500000 0.319660 0.381240 -0.582397
C1    C     C_R   0.503750 0.262860 0.501299 0.801920
O3    O     O_R   0.430260 0.500010 0.618770 -0.579676
O4    O     O_R   0.430270 0.500030 0.381200 -0.579998
C2    C     C_R   0.407804 0.500567 0.499979 0.797566
Cu1   Cu    Cu3+1 0.500000 0.499990 0.640660 0.919926
Cu2   Cu    Cu3+1 0.500000 0.500010 0.359340 0.923122
O5    O     O_R   0.500000 0.680340 0.618760 -0.610283
O6    O     O_R   0.500000 0.680360 0.381190 -0.603077
O7    O     O_R   0.569730 0.499970 0.618800 -0.598952
O8    O     O_R   0.569740 0.499990 0.381230 -0.597012
C3    C     C_R   0.497293 0.737443 0.500649 0.780137
C4    C     C_R   0.592447 0.500397 0.499973 0.780676
C5    C     C_R   0.177335 0.444881 0.609077 0.538584
O9    O     O_2   0.201319 0.402589 0.720802 -0.543881
N1    N     N_R   0.202333 0.490576 0.495596 -0.457657
C6    C     C_R   0.178962 0.535468 0.381597 0.538487
C7    C     C_R   0.280247 0.605588 0.493731 -0.130505
C8    C     C_R   0.330651 0.609923 0.495320 0.023106
C9    C     C_R   0.328541 0.383770 0.503764 0.020203
C10   C     C_R   0.278166 0.382821 0.502091 -0.130966
C11   C     C_R   0.254027 0.492927 0.496820 0.299829
C12   C     C_R   0.102050 0.490304 0.495200 -0.045564
C13   C     C_R   0.126811 0.442968 0.610498 -0.022422
C14   C     C_R   0.100772 0.396320 0.725291 -0.147428
C15   C     C_R   0.128507 0.537126 0.379773 -0.022935
C16   C     C_R   0.355111 0.498155 0.499700 -0.062716
H1    H     H_    0.257454 0.295928 0.505086 0.149218
H2    H     H_    0.118967 0.361198 0.816278 0.188236
C17   C     C_R   0.645286 0.500599 0.499689 -0.037311
C18   C     C_R   0.973582 0.433562 0.606497 0.040598
C19   C     C_R   0.975830 0.552617 0.386041 0.040718
C20   C     C_R   0.949461 0.493926 0.496643 0.068188
C21   C     C_R   0.945477 0.369217 0.708726 -0.207571
C22   C     C_R   0.895512 0.368605 0.706140 -0.144470
C23   C     C_R   0.871542 0.432563 0.602183 -0.019114
C24   C     C_R   0.898374 0.495680 0.497437 -0.045541
C25   C     C_R   0.874015 0.560573 0.393499 -0.018627
C26   C     C_R   0.823576 0.562776 0.397424 0.534287
N2    N     N_R   0.798052 0.498987 0.498876 -0.464610
C27   C     C_R   0.821067 0.433718 0.599734 0.535006
C28   C     C_R   0.720051 0.458317 0.381959 -0.099776
C29   C     C_R   0.669945 0.459792 0.381665 -0.218543
C30   C     C_R   0.671531 0.541441 0.617270 -0.226758
C31   C     C_R   0.721695 0.542283 0.616345 -0.095228
C32   C     C_R   0.746298 0.500005 0.499036 0.340077
O10   O     O_2   0.795191 0.369008 0.696648 -0.544065
C33   C     C_R   0.024718 0.438611 0.610073 0.041502
C34   C     C_R   0.050946 0.491100 0.495467 0.069192
C35   C     C_R   0.026669 0.544629 0.381247 0.041500
C36   C     C_R   0.050776 0.393984 0.725319 -0.209624
H3    H     H_    0.650478 0.427271 0.289993 0.163381
H4    H     H_    0.738523 0.424418 0.291157 0.155556
H5    H     H_    0.875706 0.317784 0.786828 0.187443
H6    H     H_    0.960953 0.315485 0.790741 0.141815
H7    H     H_    0.033638 0.359273 0.819327 0.141130
O11   O     O_2   0.204485 0.577862 0.270059 -0.541952
C37   C     C_R   0.104159 0.583851 0.264873 -0.147291
H8    H     H_    0.261062 0.690373 0.490272 0.149151
H9    H     H_    0.123607 0.618305 0.173649 0.188435
C38   C     C_R   0.950260 0.618711 0.284574 -0.207785
C39   C     C_R   0.900412 0.622747 0.288711 -0.144804
O12   O     O_2   0.800262 0.629095 0.301215 -0.545120
C40   C     C_R   0.054286 0.587680 0.265338 -0.209766
H10   H     H_    0.967810 0.671350 0.202078 0.141751
H11   H     H_    0.653349 0.574122 0.709182 0.156952
H12   H     H_    0.882606 0.674823 0.208581 0.187214
H13   H     H_    0.741487 0.575797 0.706958 0.155072
H14   H     H_    0.038372 0.622567 0.171370 0.141219
H15   H     H_    0.509175 0.112454 0.280364 0.163106
C41   C     C_R   0.518870 0.116362 0.766239 -0.146436
H16   H     H_    0.538886 0.203402 0.775263 0.169247
C42   C     C_R   0.506550 0.055791 0.890675 -0.157843
H17   H     H_    0.514626 0.099296 0.990060 0.131301
C43   C     C_R   0.482503 0.941140 0.886768 -0.140300
H18   H     H_    0.470498 0.896674 0.982872 0.134665
C44   C     C_R   0.475216 0.881884 0.759157 -0.156640
H19   H     H_    0.454864 0.794922 0.761478 0.162626
C45   C     C_R   0.492417 0.936744 0.632772 0.081321
C46   C     C_R   0.507129 0.062446 0.635033 0.087140
C47   C     C_R   0.508168 0.128809 0.506281 -0.125582
C48   C     C_R   0.507006 0.064445 0.379770 -0.216322
H20   H     H_    0.505061 0.890038 0.279934 0.170420
C49   C     C_R   0.503201 0.937138 0.379295 -0.221055
C50   C     C_R   0.495540 0.871841 0.504375 -0.111069
H21   H     H_    0.446850 0.357303 0.130095 0.139129
C51   C     C_R   0.563026 0.666333 0.143651 -0.157288
H22   H     H_    0.566731 0.672619 0.253670 0.203952
C52   C     C_R   0.593292 0.748905 0.070952 -0.203328
H23   H     H_    0.617215 0.812674 0.127043 0.161709
C53   C     C_R   0.593339 0.748878 0.927019 -0.196508
H24   H     H_    0.617289 0.812630 0.870394 0.158055
C54   C     C_R   0.563111 0.666310 0.854996 -0.145797
H25   H     H_    0.566903 0.672637 0.744949 0.199652
C55   C     C_R   0.530915 0.582037 0.924758 0.202781
C56   C     C_R   0.530895 0.582007 0.074526 0.202936
N3    N     N_R   0.500460 0.501210 0.147910 -0.199578
C57   C     C_R   0.470771 0.421573 0.074357 -0.066478
H26   H     H_    0.447082 0.356970 0.871129 0.139803
C58   C     C_R   0.470833 0.421512 0.926277 -0.071423
N4    N     N_R   0.500480 0.501290 0.852040 -0.202921
C59   C     C_3   0.352379 0.261270 0.513786 -0.413071
C60   C     C_3   0.354274 0.218375 0.666432 -0.320358
C61   C     C_3   0.373702 0.089599 0.678008 -0.846825
H27   H     H_    0.348490 0.021156 0.627718 0.250793
H28   H     H_    0.409262 0.087225 0.626266 0.262893
H29   H     H_    0.377797 0.064219 0.789776 0.249034
H30   H     H_    0.377876 0.283813 0.727034 0.224740
H31   H     H_    0.317621 0.216800 0.713158 0.236868
H32   H     H_    0.331663 0.191545 0.450452 0.198029
H33   H     H_    0.389321 0.267031 0.469358 0.193847
C62   C     C_3   0.356722 0.735295 0.491929 -0.416399
C63   C     C_3   0.367299 0.776714 0.341036 -0.317200
C64   C     C_3   0.376890 0.916068 0.331652 -0.862422
H34   H     H_    0.343205 0.964328 0.352202 0.252180
H35   H     H_    0.404313 0.947165 0.409266 0.271147
H36   H     H_    0.390010 0.941513 0.225346 0.243244
H37   H     H_    0.399218 0.729425 0.301546 0.233638
H38   H     H_    0.336207 0.751528 0.272210 0.239714
H39   H     H_    0.334029 0.803334 0.544310 0.202161
H40   H     H_    0.390715 0.734708 0.552758 0.179207

loop_
_geom_bond_atom_site_label_1
_geom_bond_atom_site_label_2
_geom_bond_distance
_ccdc_geom_bond_type
C58   N4    1.366462 A    
C10   H1    1.083870 S    
C55   N4    1.381823 A    
N2    C27   1.370264 A    
C7    C8    1.400444 A    
C12   C15   1.407961 A    
C4    C17   1.469256 S    
C63   C64   1.526728 S    
Cu1   Cu2   2.692071 S    
C49   C50   1.400258 A    
Cu1   O7    1.950213 S    
C61   H28   1.107042 S    
N1    C11   1.436672 S    
C42   C43   1.387577 A    
C22   C23   1.396875 A    
C23   C24   1.407384 A    
C43   C44   1.393089 A    
O4    C2    1.296936 A    
O7    C4    1.300449 A    
C44   C45   1.419710 A    
C5    C13   1.404284 A    
C40   H14   1.077078 S    
C56   N3    1.381713 A    
C59   H32   1.112603 S    
C35   C40   1.415173 A    
C23   C27   1.404407 A    
O5    C3    1.290793 A    
C53   H24   1.083039 S    
C31   H13   1.082845 S    
C45   C50   1.423057 A    
C31   C32   1.403268 A    
C29   H3    1.083221 S    
C6    O11   1.349855 S    
C2    C16   1.464387 S    
C62   H40   1.110601 S    
C21   C22   1.389399 A    
C19   C38   1.415094 A    
C64   H35   1.107758 S    
Cu1   N4    2.022934 S    
C3    C50   1.462184 S    
C30   H11   1.082820 S    
H15   C48   1.083326 S    
C51   C56   1.416978 A    
C54   C55   1.417024 A    
C33   C36   1.415273 A    
O1    Cu1   1.969353 S    
C9    C10   1.400514 A    
C54   H25   1.059983 S    
O3    Cu1   1.950701 S    
C60   C61   1.523771 S    
C46   C47   1.424507 A    
H21   C57   1.081807 S    
C43   H18   1.082883 S    
C12   C34   1.421499 A    
C24   C25   1.407414 A    
C61   H29   1.110596 S    
C37   H9    1.083521 S    
C17   C29   1.404025 A    
C38   H10   1.077023 S    
C18   C21   1.415115 A    
C12   C13   1.407980 A    
C41   C42   1.393508 A    
C42   H17   1.082709 S    
C25   C26   1.404330 A    
C44   H19   1.079466 S    
C41   H16   1.079286 S    
C8    C16   1.416693 A    
C13   C14   1.396709 A    
C30   C31   1.394612 A    
C47   C48   1.399662 A    
C59   H33   1.110790 S    
O1    C1    1.290662 A    
C18   C20   1.420483 A    
C7    C11   1.396522 A    
C28   C29   1.394154 A    
C38   C39   1.389316 A    
C14   C36   1.389415 A    
C28   H4    1.082855 S    
C52   C53   1.377359 A    
Cu2   O8    1.950696 S    
C64   H36   1.110462 S    
C55   C56   1.433191 A    
C1    C47   1.466002 S    
C53   C54   1.387296 A    
C34   C35   1.420496 A    
N2    C32   1.439694 S    
C27   O10   1.349803 S    
H20   C49   1.083485 S    
Cu2   N3    2.023289 S    
O3    C2    1.297345 A    
C26   N2    1.370221 A    
C57   C58   1.417042 A    
C9    C16   1.417373 A    
C51   C52   1.387476 A    
C33   C34   1.420559 A    
C62   C63   1.535244 S    
Cu1   O5    1.967854 S    
C39   H12   1.083483 S    
C48   C49   1.381242 A    
C21   H6    1.076973 S    
C20   C24   1.421596 A    
O2    Cu2   1.967854 S    
C6    C15   1.404062 A    
C41   C46   1.419427 A    
O8    C4    1.300122 A    
C45   C46   1.407525 A    
O6    C3    1.305967 A    
O4    Cu2   1.950216 S    
C14   H2    1.083520 S    
C7    H8    1.083873 S    
C19   C35   1.420872 A    
C25   C39   1.396834 A    
C61   H27   1.110336 S    
C26   O12   1.349811 S    
N1    C6    1.368898 A    
O2    C1    1.308155 A    
C22   H5    1.083489 S    
C15   C37   1.396698 A    
C37   C40   1.389293 A    
C60   H31   1.112258 S    
C52   H23   1.083021 S    
C60   H30   1.111106 S    
C63   H37   1.111156 S    
H26   C58   1.080952 S    
C19   C20   1.420405 A    
C8    C62   1.514115 S    
C18   C33   1.421110 A    
C36   H7    1.076997 S    
C9    C59   1.513848 S    
C62   H39   1.112480 S    
C51   H22   1.060054 S    
Cu2   O6    1.969353 S    
N3    C57   1.366530 A    
C17   C30   1.404133 A    
C59   C60   1.533094 S    
C10   C11   1.396508 A    
C64   H34   1.110643 S    
C5    N1    1.368933 A    
C28   C32   1.403038 A    
C63   H38   1.112377 S    
C5    O9    1.349826 S    
