data_mof_unit_pretest_268.cif
_audit_creation_date              2013-03-05T16:06:39-0500
_audit_creation_method            fapswitch 2.2
_symmetry_space_group_name_H-M    P1
_symmetry_Int_Tables_number       1
_space_group_crystal_system       triclinic
_cell_length_a                    8.186946
_cell_length_b                    15.136114
_cell_length_c                    22.826438
_cell_angle_alpha                 97.934768
_cell_angle_beta                  89.435521
_cell_angle_gamma                 98.721894
_cell_volume                      2768.96316502

loop_
_atom_site_label
_atom_site_type_symbol
_atom_site_description
_atom_site_fract_x
_atom_site_fract_y
_atom_site_fract_z
_atom_type_partial_charge
P1    P     P_3+3 0.056010 0.422560 0.367570 0.487899
O1    O     O_2   0.889550 0.449620 0.359410 -0.369966
O2    O     O_3   0.130120 0.450560 0.430480 -0.345275
O3    O     O_3   0.674100 0.616440 0.398760 -0.377384
O4    O     O_2   0.798791 0.550730 0.296334 -0.395833
O5    O     O_3   0.989134 0.306285 0.363866 -0.578914
O6    O     O_3   0.738595 0.712183 0.297685 -0.481953
H1    H     H_    0.758147 0.788858 0.380269 0.151241
C1    C     C_3   0.737184 0.869620 0.310079 -0.594670
H2    H     H_    0.872157 0.880705 0.301956 0.250373
H3    H     H_    0.672189 0.862698 0.266748 0.221994
P2    P     P_3+3 0.670430 0.710550 0.550450 0.463345
P3    P     P_3+3 0.132083 0.778038 0.427584 0.498267
O7    O     O_2   0.848070 0.724010 0.533650 -0.368901
O8    O     O_3   0.092910 0.663610 0.428710 -0.381866
O9    O     O_2   0.992052 0.817840 0.462919 -0.352056
O10   O     O_3   0.677470 0.733634 0.627803 -0.564357
O11   O     O_3   0.095957 0.790668 0.354115 -0.493690
C2    C     C_3   0.190231 0.737143 0.316105 0.419438
H4    H     H_    0.105914 0.679576 0.291848 0.146239
H5    H     H_    0.284069 0.707675 0.338957 -0.004462
C3    C     C_3   0.280589 0.794399 0.272272 -0.730783
H6    H     H_    0.358464 0.853842 0.297102 0.211336
C4    C     C_3   0.228708 0.735575 0.602225 0.438902
H7    H     H_    0.350326 0.715633 0.590835 0.085042
H8    H     H_    0.143603 0.716166 0.563511 0.126514
C5    C     C_3   0.248905 0.837576 0.618996 -0.974074
H9    H     H_    0.337784 0.859172 0.656540 0.269423
H10   H     H_    0.295869 0.871997 0.581079 0.222657
H11   H     H_    0.127756 0.858329 0.632053 0.268261
Ba1   Ba    Ba6+2 0.856840 0.543240 0.473380 1.586726
C6    C     C_3   0.092414 0.253938 0.329938 0.745511
H12   H     H_    0.223189 0.285165 0.336338 0.005275
C7    C     C_3   0.044520 0.242248 0.264183 -0.917159
H13   H     H_    0.912396 0.212247 0.257714 0.287542
H14   H     H_    0.122180 0.197614 0.237794 0.251904
H15   H     H_    0.063923 0.307145 0.247016 0.249514
C8    C     C_3   0.710355 0.657398 0.651302 0.419150
H16   H     H_    0.829541 0.639207 0.634657 0.092750
H17   H     H_    0.610764 0.599353 0.639578 0.134140
C9    C     C_3   0.720332 0.679091 0.718355 -0.932462
H18   H     H_    0.825178 0.733746 0.731632 0.271328
H19   H     H_    0.739146 0.618399 0.738069 0.221604
H20   H     H_    0.603518 0.701095 0.735624 0.268307
P4    P     P_3+3 0.133710 0.577520 0.632440 0.474356
O12   O     O_2   0.300150 0.550410 0.640630 -0.368125
O13   O     O_3   0.059590 0.549510 0.569530 -0.412946
O14   O     O_3   0.515610 0.383640 0.601250 -0.404185
O15   O     O_3   0.166362 0.695083 0.650860 -0.557601
P5    P     P_3+3 0.057419 0.218585 0.569396 0.513708
O16   O     O_3   0.613300 0.389650 0.468010 -0.384162
O17   O     O_3   0.096810 0.336470 0.571300 -0.348693
O18   O     O_2   0.193306 0.178508 0.532002 -0.349090
O19   O     O_3   0.097654 0.192989 0.639657 -0.521775
Ba2   Ba    Ba6+2 0.332990 0.456840 0.526630 1.617905
P6    P     P_3+3 0.667228 0.608214 0.321282 0.468665
C10   C     C_3   0.691211 0.782691 0.337460 0.298831
H21   H     H_    0.556238 0.771451 0.345232 0.006006
O20   O     O_3   0.576410 0.610420 0.531990 -0.407608
C11   C     C_3   0.581796 0.310805 0.335609 0.271792
H22   H     H_    0.553392 0.380090 0.349764 0.082272
H23   H     H_    0.712566 0.307153 0.342480 0.169042
C12   C     C_3   0.542819 0.282970 0.269603 -0.696421
H24   H     H_    0.411291 0.286225 0.260586 0.175170
H25   H     H_    0.564369 0.212106 0.256594 0.262119
P7    P     P_3+3 0.523991 0.277399 0.443446 0.480179
O21   O     O_2   0.341630 0.276020 0.466390 -0.309415
O22   O     O_3   0.488215 0.248532 0.367043 -0.563524
H26   H     H_    0.364785 0.755024 0.245232 0.217392
C13   C     C_3   0.955126 0.193921 0.673993 0.262382
H27   H     H_    0.922524 0.263200 0.681301 0.099651
H28   H     H_    0.850991 0.145389 0.652041 -0.015681
C14   C     C_3   0.988275 0.163244 0.733672 -0.037177
H29   H     H_    0.011070 0.092016 0.724485 0.058471
P8    P     P_3+3 0.533278 0.383495 0.677088 0.516326
C15   C     C_3   0.497761 0.212278 0.647046 0.613260
H30   H     H_    0.634558 0.224360 0.644936 -0.080215
O23   O     O_2   0.424269 0.450715 0.708147 -0.355230
O24   O     O_3   0.439276 0.276036 0.690022 -0.419576
H31   H     H_    0.446757 0.215953 0.602746 0.097331
H32   H     H_    0.499797 0.068157 0.629011 0.181279
C16   C     C_3   0.444854 0.116738 0.661411 -0.866575
H33   H     H_    0.308729 0.098284 0.658936 0.277107
H34   H     H_    0.486981 0.110516 0.706402 0.293627
H35   H     H_    0.999893 0.281010 0.044943 0.180566
H36   H     H_    0.922127 0.273988 0.942087 0.169530
C17   C     C_R   0.351030 0.515917 0.330772 -0.451618
C18   C     C_R   0.096944 0.577439 0.941643 -0.053133
C19   C     C_R   0.049570 0.571990 0.881377 0.524606
O25   O     O_2   0.068189 0.640321 0.857622 -0.586109
N1    N     N_R   0.980090 0.490218 0.849583 -0.166864
C20   C     C_R   0.956446 0.413176 0.877523 0.585484
O26   O     O_2   0.897637 0.340706 0.850012 -0.554595
C21   C     C_R   0.000797 0.416604 0.937452 -0.071103
C22   C     C_R   0.071591 0.499133 0.969699 -0.011961
C23   C     C_R   0.168597 0.659408 0.974709 -0.114859
C24   C     C_R   0.214313 0.663338 0.034090 -0.087981
C25   C     C_R   0.189494 0.585479 0.062542 -0.051151
C26   C     C_R   0.117425 0.503171 0.030217 -0.024334
C27   C     C_R   0.976262 0.338666 0.965754 -0.097593
C28   C     C_R   0.021097 0.342646 0.025029 -0.083089
C29   C     C_R   0.092105 0.424669 0.058028 -0.058584
C30   C     C_R   0.139347 0.429585 0.118004 0.543440
N2    N     N_R   0.208088 0.511125 0.150227 -0.169709
C31   C     C_R   0.235258 0.588236 0.122506 0.564723
C32   C     C_2   0.783620 0.437860 0.767040 -0.144981
C33   C     C_3   0.755435 0.408819 0.701548 0.152892
C34   C     C_1   0.002879 0.517070 0.685558 0.291833
C35   C     C_2   0.048789 0.523313 0.742258 -0.126124
C36   C     C_2   0.932079 0.484154 0.787087 0.117399
C37   C     C_R   0.416939 0.552754 0.232436 -0.269626
C38   C     C_R   0.462619 0.554807 0.291761 0.190263
C39   C     C_R   0.192424 0.475731 0.312236 0.188321
C40   C     C_R   0.142306 0.478399 0.253520 -0.229288
C41   C     C_R   0.255392 0.514844 0.212337 0.156420
O27   O     O_2   0.121884 0.360720 0.141181 -0.574683
O28   O     O_2   0.299175 0.659706 0.149992 -0.597141
C42   C     C_2   0.861889 0.468854 0.664118 -0.491790
H37   H     H_    0.269217 0.727871 0.057731 0.172669
H38   H     H_    0.506775 0.580487 0.202152 0.182173
H39   H     H_    0.189936 0.720970 0.954727 0.173512
H40   H     H_    0.172472 0.555394 0.756284 0.171864
H41   H     H_    0.693546 0.410249 0.797486 0.189793
H42   H     H_    0.016790 0.451126 0.239543 0.189112
H43   H     H_    0.388819 0.516231 0.376104 0.174696
H44   H     H_    0.835254 0.458574 0.616996 0.175185
C43   C     C_R   0.340670 0.825947 0.459098 0.174902
H45   H     H_    0.377615 0.693245 0.475112 0.170128
C44   C     C_R   0.575258 0.792380 0.512737 0.310088
C45   C     C_R   0.769196 0.228009 0.509635 -0.388286
C46   C     C_R   0.855213 0.170198 0.534907 0.242523
C47   C     C_R   0.791347 0.078070 0.531232 -0.232709
C48   C     C_R   0.637585 0.042608 0.502074 0.048843
C49   C     C_R   0.555218 0.103606 0.475567 -0.089091
C50   C     C_R   0.565016 0.948873 0.496442 0.005769
C51   C     C_R   0.409504 0.919249 0.465436 -0.204378
C52   C     C_R   0.332209 0.984391 0.441475 0.336158
C53   C     C_R   0.407954 0.072298 0.445207 -0.094159
C54   C     C_R   0.642025 0.883953 0.520849 -0.238682
C55   C     C_R   0.428881 0.764102 0.480376 -0.510467
C56   C     C_R   0.621397 0.195744 0.479353 0.213564
H46   H     H_    0.754004 0.902366 0.546875 0.151912
H47   H     H_    0.820436 0.298678 0.512048 0.169248
H48   H     H_    0.864907 0.036591 0.551027 0.146535
H49   H     H_    0.345954 0.116181 0.423079 0.224212
N3    N     N_R   0.071434 0.165811 0.350948 0.251874
O29   O     O_R   0.023309 0.091755 0.315257 -0.369059
O30   O     O_R   0.069705 0.162752 0.407562 -0.346140
C57   C     C_2   0.694889 0.949910 0.349724 0.608383
H50   H     H_    0.750497 0.967724 0.393354 0.102194
O31   O     O_2   0.601384 0.996858 0.332686 -0.560377
C58   C     C_2   0.646324 0.343719 0.232579 0.592107
H51   H     H_    0.631887 0.414059 0.236092 0.046379
O32   O     O_2   0.743653 0.314017 0.197057 -0.551941
N4    N     N_R   0.134025 0.218738 0.763204 0.291420
O33   O     O_R   0.248435 0.180505 0.784219 -0.351988
O34   O     O_R   0.149591 0.306399 0.769656 -0.324981
C59   C     C_2   0.843082 0.164457 0.774592 0.515873
H52   H     H_    0.842505 0.131424 0.813881 0.048696
O35   O     O_2   0.727308 0.202961 0.765203 -0.559911
N5    N     N_R   0.176943 0.965681 0.411300 0.263369
O36   O     O_R   0.047772 0.986323 0.440577 -0.370975
O37   O     O_R   0.177169 0.965902 0.354397 -0.368779
C60   C     C_2   0.162362 0.826264 0.232907 0.814665
H53   H     H_    0.165350 0.897989 0.232068 0.041188
O38   O     O_2   0.063090 0.772291 0.201497 -0.556015

loop_
_geom_bond_atom_site_label_1
_geom_bond_atom_site_label_2
_geom_bond_distance
_ccdc_geom_bond_type
C47   H48   1.076740 S    
O14   Ba2   2.727227 S    
P7    O22   1.754732 S    
C18   C23   1.408045 A    
P8    C33   1.875135 S    
C28   C29   1.406500 A    
Ba2   O20   2.812753 S    
C5    H10   1.107050 S    
C7    H15   1.096084 S    
C14   H29   1.113090 S    
O4    P6    1.541689 D    
O5    C6    1.401193 S    
C2    H4    1.110961 S    
C15   O24   1.411537 S    
O7    Ba1   2.898749 S    
C12   H25   1.112752 S    
N5    O36   1.300463 A    
C50   C51   1.442200 A    
P7    C56   1.851156 S    
P4    O12   1.501958 D    
C50   C54   1.421040 A    
C1    C57   1.494507 S    
P5    O19   1.746845 S    
C25   C31   1.416048 A    
C23   H39   1.083150 S    
C11   H22   1.112284 S    
C11   C12   1.530638 S    
N1    C36   1.470368 S    
C60   H53   1.085002 S    
C2    H5    1.112347 S    
C4    H8    1.109547 S    
C7    H13   1.110736 S    
C57   O31   1.220401 D    
C8    H16   1.103445 S    
C24   H37   1.083256 S    
C54   H46   1.076391 S    
C22   C26   1.425739 A    
C35   H40   1.085342 S    
C6    N3    1.464347 S    
C32   C33   1.508624 S    
C53   H49   1.074187 S    
C24   C25   1.409969 A    
P1    Ba1   3.381798 S    
C34   C35   1.338058 D    
O8    Ba1   2.738725 S    
C11   H23   1.094304 S    
P1    O1    1.501673 D    
C9    H18   1.110656 S    
Ba1   O20   2.892530 S    
C45   C56   1.387272 A    
C20   O26   1.218612 D    
C39   C40   1.413199 A    
P2    O20   1.594773 S    
O2    Ba2   2.747891 S    
C37   C38   1.403377 A    
C47   C48   1.424338 A    
O19   C13   1.400003 S    
C32   H41   1.085397 S    
P5    O17   1.758989 S    
C4    C5    1.522552 S    
C13   H27   1.111025 S    
P4    O15   1.751026 S    
C19   N1    1.388821 Am   
H36   C27   1.083411 S    
C1    H2    1.109916 S    
C33   C42   1.508235 S    
C7    H14   1.110795 S    
O17   Ba2   2.739266 S    
C40   H42   1.081473 S    
P7    O21   1.575397 D    
C18   C22   1.410817 A    
Ba1   O13   2.747320 S    
O3    P6    1.756554 S    
C5    H11   1.110886 S    
C59   O35   1.220650 D    
C9    H19   1.108402 S    
O14   P8    1.738899 S    
C31   O28   1.218653 D    
C21   C22   1.404676 A    
P1    C39   1.862956 S    
O6    P6    1.748425 S    
N2    C31   1.390886 Am   
N5    O37   1.299336 A    
H32   C16   1.110674 S    
N3    O30   1.299364 A    
C15   H30   1.108738 S    
P4    O13   1.543098 S    
C37   C41   1.413522 A    
N4    O33   1.300868 A    
P5    O18   1.541824 D    
P2    C44   1.866166 S    
P1    O5    1.752701 S    
C34   C42   1.327221 D    
C2    C3    1.526362 S    
C4    H7    1.102028 S    
C8    C9    1.520772 S    
C15   C16   1.524646 S    
N1    C20   1.392293 Am   
O11   C2    1.409689 S    
C17   C38   1.392715 A    
C14   C59   1.505248 S    
O1    Ba1   2.816244 S    
P1    O2    1.543057 S    
O16   P7    1.761831 S    
C6    C7    1.534657 S    
O12   Ba2   2.816708 S    
C45   H47   1.082254 S    
H1    C10   1.110756 S    
N2    C41   1.464697 S    
C3    C60   1.501752 S    
C44   C54   1.398428 A    
C21   C27   1.409026 A    
C23   C24   1.400672 A    
C14   N4    1.462650 S    
C13   C14   1.537894 S    
C20   C21   1.410803 A    
C43   C51   1.427142 A    
O2    Ba1   2.908931 S    
N4    O34   1.301371 A    
C1    H3    1.112329 S    
P4    Ba2   3.382298 S    
P3    O11   1.746959 S    
C58   O32   1.220568 D    
P2    O7    1.491430 D    
C16   H33   1.107104 S    
C16   H34   1.107266 S    
P3    O8    1.716689 S    
P2    Ba1   3.424371 S    
C48   C49   1.422785 A    
C9    H20   1.110789 S    
C43   C55   1.403991 A    
C46   C47   1.404415 A    
C17   H43   1.082119 S    
H35   C28   1.083296 S    
O13   Ba2   2.909673 S    
N3    O29   1.302178 A    
C32   C36   1.357131 D    
C4    O15   1.396584 S    
C3    H26   1.107229 S    
C15   H31   1.109437 S    
Ba1   O16   2.813420 S    
C51   C52   1.420121 A    
C1    C10   1.528313 S    
C49   C53   1.382369 A    
Ba2   O21   2.899006 S    
P4    C34   1.854203 S    
C40   C41   1.419967 A    
C52   C53   1.371761 A    
C6    H12   1.105244 S    
C60   O38   1.220823 D    
C45   C46   1.388755 A    
H45   C55   1.081560 S    
C35   C36   1.512544 S    
C49   C56   1.408708 A    
C8    H17   1.109249 S    
C10   H21   1.108572 S    
C59   H52   1.085057 S    
C44   C55   1.392676 A    
C27   C28   1.396293 A    
P6    C38   1.837056 S    
C30   O27   1.221640 D    
O16   Ba2   2.891857 S    
O10   C8    1.399886 S    
C29   C30   1.415270 A    
P8    O23   1.548561 D    
C12   C58   1.497318 S    
C17   C39   1.391168 A    
O3    Ba1   2.727833 S    
P5    C46   1.842681 S    
C12   H24   1.107963 S    
P3    C43   1.861219 S    
P2    O10   1.751748 S    
C26   C29   1.410244 A    
C18   C19   1.420962 A    
C11   O22   1.395397 S    
C25   C26   1.405886 A    
P3    O9    1.544305 D    
C30   N2    1.388476 Am   
C48   C50   1.441516 A    
C3    H6    1.108882 S    
C37   H38   1.082334 S    
C13   H28   1.111026 S    
C58   H51   1.080890 S    
C42   H44   1.084832 S    
Ba1   Ba2   4.523505 S    
C19   O25   1.221613 D    
C57   H50   1.081377 S    
P8    O24   1.753129 S    
O6    C10   1.401733 S    
C52   N5    1.422910 S    
C5    H9    1.110673 S    
