data_mof_unit_pretest_373.cif
_audit_creation_date              2012-12-11T17:37:56-0500
_audit_creation_method            fapswitch 2.2
_symmetry_space_group_name_H-M    P1
_symmetry_Int_Tables_number       1
_space_group_crystal_system       triclinic
_cell_length_a                    12.923544
_cell_length_b                    13.01727
_cell_length_c                    15.279477
_cell_angle_alpha                 115.752749
_cell_angle_beta                  64.254082
_cell_angle_gamma                 96.489323
_cell_volume                      2076.22196595

loop_
_atom_site_label
_atom_site_type_symbol
_atom_type_description
_atom_site_fract_x
_atom_site_fract_y
_atom_site_fract_z
_atom_type_partial_charge
C1    C     C_R   0.024237 0.833735 0.028017 -0.132355
C2    C     C_R   0.709373 0.430148 0.303573 0.096750
C3    C     C_R   0.636564 0.563682 0.024814 0.153640
C4    C     C_R   0.991839 0.824272 0.320358 0.059533
C5    C     C_R   0.322076 0.579670 0.011593 -0.174417
C6    C     C_R   0.906520 0.200343 0.790616 -0.133375
C7    C     C_R   0.217334 0.443396 0.686197 -0.112156
C8    C     C_R   0.098529 0.251736 0.044741 -0.115425
C9    C     C_R   0.999780 0.168096 0.947984 -0.080905
C10   C     C_R   0.320555 0.534593 0.780529 -0.157231
C11   C     C_R   0.243533 0.481544 0.109006 -0.160098
C12   C     C_R   0.703589 0.402958 0.208230 -0.155789
C13   C     C_R   0.985398 0.303735 0.698090 -0.156685
C14   C     C_R   0.335835 0.543369 0.078071 0.112527
C15   C     C_R   0.930947 0.207821 0.696766 0.072108
C16   C     C_R   0.326629 0.465373 0.679165 0.073160
C17   C     C_R   0.086172 0.146481 0.970944 0.029502
C18   C     C_R   0.376572 0.860096 0.262736 -0.100994
C19   C     C_R   0.259127 0.879580 0.332888 -0.132759
C20   C     C_R   0.187772 0.957632 0.338106 0.133944
C21   C     C_R   0.235085 0.015584 0.272328 -0.188655
C22   C     C_R   0.351780 0.992926 0.199769 -0.111728
C23   C     C_R   0.738684 0.581143 0.950909 -0.153616
C24   C     C_R   0.422605 0.915415 0.195193 -0.098829
C25   C     C_R   0.047222 0.085609 0.514773 -0.254588
C26   C     C_R   0.937583 0.116014 0.600269 0.061261
C27   C     C_R   0.843716 0.052966 0.594463 0.053965
C28   C     C_R   0.863358 0.956008 0.499741 -0.233029
C29   C     C_R   0.974643 0.924283 0.415334 0.055356
C30   C     C_R   0.067344 0.989613 0.421833 0.006700
C31   C     C_R   0.668921 0.025003 0.742588 0.336448
C32   C     C_R   0.559818 0.067869 0.830163 -0.148897
C33   C     C_R   0.508471 0.174026 0.860204 -0.157253
C34   C     C_R   0.964279 0.717452 0.315441 -0.143865
C35   C     C_R   0.565188 0.238726 0.803367 -0.090142
C36   C     C_R   0.673167 0.197213 0.715840 -0.201866
C37   C     C_R   0.726060 0.090423 0.684312 0.066316
C38   C     C_R   0.888127 0.199967 0.380198 -0.114374
C39   C     C_R   0.787299 0.237640 0.385526 -0.150260
C40   C     C_R   0.743645 0.353182 0.448011 0.166701
C41   C     C_R   0.801460 0.430212 0.505654 -0.177649
C42   C     C_R   0.902723 0.392521 0.499199 -0.137939
C43   C     C_R   0.946101 0.277496 0.436432 -0.089341
C44   C     C_R   0.530813 0.395969 0.557483 0.252348
C45   C     C_R   0.661361 0.480601 0.047126 -0.110718
C46   C     C_R   0.425312 0.446665 0.580743 0.013576
C47   C     C_R   0.414944 0.485314 0.511436 -0.031287
C48   C     C_R   0.509222 0.468690 0.417389 -0.245668
C49   C     C_R   0.615406 0.424949 0.395584 0.012992
C50   C     C_R   0.629075 0.390936 0.466091 -0.045169
C51   C     C_R   0.256795 0.510132 0.466697 -0.170640
C52   C     C_R   0.160022 0.572485 0.489165 -0.135073
C53   C     C_R   0.115676 0.675592 0.581882 -0.107132
C54   C     C_R   0.168804 0.717180 0.651722 -0.110058
C55   C     C_R   0.266373 0.655733 0.628973 -0.121571
C56   C     C_R   0.049260 0.817504 0.218237 -0.120225
C57   C     C_R   0.310274 0.550753 0.536950 0.145132
C58   C     C_2   0.426355 0.574720 0.114800 0.289029
C59   C     C_2   0.522951 0.606437 0.053198 -0.270635
C60   C     C_2   0.894497 0.963901 0.021422 -0.227072
C61   C     C_2   0.881597 0.056248 0.111583 -0.137927
C62   C     C_R   0.802801 0.491024 0.304568 -0.129377
C63   C     C_R   0.927902 0.748359 0.928519 -0.145667
C64   C     C_R   0.950561 0.853878 0.991415 0.138324
H1    H     H_    0.067547 0.897480 0.070024 0.087430
H2    H     H_    0.857084 0.138571 0.817692 0.099904
H3    H     H_    0.192547 0.396311 0.621235 0.101680
H4    H     H_    0.159632 0.267204 0.078860 0.092796
H5    H     H_    0.969174 0.105498 0.892168 0.089969
H6    H     H_    0.390363 0.571178 0.801759 0.113961
H7    H     H_    0.219396 0.454053 0.172172 0.106813
H8    H     H_    0.008798 0.339039 0.640326 0.097981
H9    H     H_    0.513408 0.899309 0.140362 0.107034
H10   H     H_    0.432370 0.803353 0.261772 0.138250
H11   H     H_    0.224617 0.836909 0.385475 0.113166
H12   H     H_    0.645133 0.348129 0.179249 0.099099
H13   H     H_    0.181522 0.078089 0.277391 0.102092
H14   H     H_    0.387696 0.036854 0.148416 0.103429
H15   H     H_    0.119463 0.134148 0.522289 0.141151
H16   H     H_    0.792500 0.906047 0.490918 0.135171
H17   H     H_    0.514636 0.019612 0.876132 0.113243
H18   H     H_    0.424793 0.206512 0.928132 0.120275
H19   H     H_    0.525610 0.321427 0.827502 0.130112
H20   H     H_    0.716415 0.248869 0.672921 0.142856
H21   H     H_    0.023852 0.248264 0.432413 0.102585
H22   H     H_    0.745776 0.631391 0.908613 0.092738
H23   H     H_    0.920549 0.110407 0.333918 0.104675
H24   H     H_    0.741101 0.176494 0.344206 0.117809
H25   H     H_    0.946457 0.452092 0.544303 0.115118
H26   H     H_    0.501730 0.499684 0.364645 0.148524
H27   H     H_    0.289936 0.430115 0.394773 0.113014
H28   H     H_    0.040474 0.723507 0.599344 0.105355
H29   H     H_    0.134713 0.797344 0.723248 0.112216
H30   H     H_    0.925829 0.692222 0.380770 0.098210
H31   H     H_    0.307583 0.689765 0.683016 0.110526
H32   H     H_    0.853955 0.967941 0.973798 0.132620
H33   H     H_    0.916668 0.055567 0.164068 0.125712
H34   H     H_    0.603786 0.437026 0.092624 0.117657
H35   H     H_    0.089470 0.884419 0.195381 0.094361
H36   H     H_    0.835793 0.520215 0.364472 0.098076
H37   H     H_    0.884440 0.733552 0.878379 0.090570
H38   H     H_    0.364765 0.645609 0.987572 0.096310
N1    N     N_R   0.037320 0.720000 0.995830 -0.043894
N2    N     N_R   0.946240 0.290870 0.848020 -0.042386
N3    N     N_R   0.146160 0.501170 0.788610 -0.042113
N4    N     N_R   0.025750 0.332680 0.063570 -0.040595
N5    N     N_R   0.962680 0.280000 0.004170 -0.043573
N6    N     N_R   0.209230 0.553860 0.848010 -0.041957
N7    N     N_R   0.175100 0.482030 0.063570 -0.041104
N8    N     N_R   0.996810 0.351820 0.788610 -0.038032
N9    N     N_R   0.790770 0.446140 0.151990 -0.041604
N10   N     N_R   0.824900 0.517970 0.936430 -0.039143
N11   N     N_R   0.003190 0.648180 0.211390 -0.038203
N12   N     N_R   0.774330 0.457010 0.995830 -0.047285
N13   N     N_R   0.053760 0.709130 0.151980 -0.036979
N14   N     N_R   0.853840 0.498830 0.211390 -0.041376
N15   N     N_R   0.974250 0.667320 0.936430 -0.038890
N16   N     N_R   0.225670 0.542990 0.004170 -0.035070
Ni1   Ni    Ni4+2 0.130310 0.630310 0.000000 0.211992
Ni2   Ni    Ni4+2 0.869690 0.369690 0.000000 0.212967
Ni3   Ni    Ni4+2 0.985660 0.509480 0.863750 0.216141
Ni4   Ni    Ni4+2 0.014340 0.490520 0.136250 0.212442
C65   C     C_3   0.724505 0.912922 0.715596 -1.097331
H39   H     H_    0.810581 0.925347 0.716400 0.253314
H40   H     H_    0.671727 0.878157 0.774623 0.250421
H41   H     H_    0.734483 0.848437 0.634846 0.257887
H42   H     H_    0.766935 0.518957 0.556838 0.109105
C66   C     C_3   0.540211 0.347164 0.628082 -1.019273
H43   H     H_    0.584669 0.259210 0.577535 0.259373
H44   H     H_    0.590187 0.402102 0.671908 0.244750
H45   H     H_    0.455546 0.339225 0.687599 0.257446
H46   H     H_    0.119395 0.540813 0.434655 0.111768
C67   C     C_3   0.410388 0.563914 0.214443 -1.055803
H47   H     H_    0.328202 0.613099 0.282260 0.256359
H48   H     H_    0.405647 0.472854 0.200845 0.239364
H49   H     H_    0.480389 0.600142 0.239385 0.258336
H50   H     H_    0.523311 0.635070 0.996338 0.103591

loop_
_geom_bond_atom_site_label_1
_geom_bond_atom_site_label_2
_ccdc_geom_bond_type
C61   H33   S    
C66   H45   S    
C11   N7    A    
C41   C42   A    
C41   H42   S    
C3    C23   A    
C19   C20   A    
C63   H37   S    
C2    C12   A    
C66   H43   S    
N10   N12   A    
C5    H38   S    
C65   H39   S    
C20   C30   S    
C53   C54   A    
C34   N11   A    
C23   N10   A    
C26   C27   A    
C13   N8    A    
N14   Ni4   S    
C18   C24   A    
C36   C37   A    
C9    H5    S    
C45   H34   S    
N8    Ni3   S    
C38   C39   A    
C63   N15   A    
C11   C14   A    
C11   H7    S    
C24   H9    S    
C65   H40   S    
N4    N5    A    
C59   H50   S    
C18   C19   A    
N15   Ni3   S    
N16   Ni1   S    
C54   H29   S    
C36   H20   S    
C51   H27   S    
C6    C15   A    
C46   C47   A    
C10   N6    A    
C45   N12   A    
C44   C66   S    
N11   Ni4   S    
C35   C36   A    
C23   H22   S    
C67   H49   S    
C1    H1    S    
C7    N3    A    
N9    N14   A    
C51   C57   A    
C6    N2    A    
C33   H18   S    
C1    N1    A    
C4    C29   S    
C18   H10   S    
C48   H26   S    
C21   C22   A    
C4    C56   A    
N6    Ni1   S    
N1    N15   A    
C39   H24   S    
C28   H16   S    
C44   C46   A    
N7    N16   A    
C58   C67   S    
C14   C58   S    
N3    N6    A    
C4    C34   A    
C51   C52   A    
C43   H21   S    
C22   H14   S    
C55   H31   S    
C16   C46   S    
C39   C40   A    
C35   H19   S    
C15   C26   S    
C58   C59   D    
C3    C45   A    
C38   C43   A    
C31   C37   A    
C8    N4    A    
C60   C61   D    
C52   H46   S    
C62   N14   A    
C29   C30   A    
C32   H17   S    
C2    C49   S    
C47   C57   S    
C47   C48   A    
C48   C49   A    
N4    Ni4   S    
C53   H28   S    
N3    Ni3   S    
C5    C14   A    
C62   H36   S    
C60   H32   S    
C9    C17   A    
C40   C41   A    
C8    H4    S    
N13   Ni1   S    
C55   C57   A    
C12   H12   S    
C7    C16   A    
C67   H47   S    
C22   C24   A    
C42   C43   A    
C1    C64   A    
C10   H6    S    
N5    Ni2   S    
C52   C53   A    
C44   C50   A    
C25   C30   A    
C54   C55   A    
C28   C29   A    
C25   H15   S    
C31   C32   A    
N1    Ni1   S    
C34   H30   S    
C65   H41   S    
C66   H44   S    
C13   H8    S    
C9    N5    A    
C38   H23   S    
C8    C17   A    
C5    N16   A    
C60   C64   S    
C42   H25   S    
C32   C33   A    
C13   C15   A    
C25   C26   A    
C31   C65   S    
N10   Ni3   S    
C10   C16   A    
N2    N8    A    
C27   C37   S    
C40   C50   S    
C19   H11   S    
C33   C35   A    
C56   N13   A    
N7    Ni4   S    
C7    H3    S    
C63   C64   A    
C6    H2    S    
C20   C21   A    
C49   C50   A    
C21   H13   S    
C27   C28   A    
C67   H48   S    
N9    Ni2   S    
C56   H35   S    
N2    Ni2   S    
C12   N9    A    
N12   Ni2   S    
C2    C62   A    
N11   N13   A    
C3    C59   S    
