data_mof_unit_pretest_78.cif
_audit_creation_date              2012-12-11T16:04:52-0500
_audit_creation_method            fapswitch 2.2
_symmetry_space_group_name_H-M    P1
_symmetry_Int_Tables_number       1
_space_group_crystal_system       triclinic
_cell_length_a                    10.667943
_cell_length_b                    10.581464
_cell_length_c                    16.886185
_cell_angle_alpha                 97.996327
_cell_angle_beta                  98.520404
_cell_angle_gamma                 61.878484
_cell_volume                      1657.32583377

loop_
_atom_site_label
_atom_site_type_symbol
_atom_type_description
_atom_site_fract_x
_atom_site_fract_y
_atom_site_fract_z
_atom_type_partial_charge
C1    C     C_R   0.353397 0.779335 0.400560 0.530226
C2    C     C_3   0.679480 0.328262 0.236438 -0.151322
C3    C     C_3   0.746655 0.387421 0.309033 0.025693
C4    C     C_3   0.898074 0.279846 0.288695 -0.081343
C5    C     C_3   0.895890 0.392235 0.238997 -0.140239
C6    C     C_3   0.744140 0.499934 0.260025 -0.131523
C7    C     C_3   0.678816 0.440617 0.185582 -0.186511
C8    C     C_3   0.830366 0.333176 0.165232 0.058146
C9    C     C_3   0.438119 0.823013 0.220187 -0.132827
C10   C     C_3   0.373628 0.736820 0.250861 -0.166021
C11   C     C_3   0.334944 0.841910 0.326525 0.032782
C12   C     C_R   0.369171 0.345997 0.359386 0.564590
C13   C     C_3   0.399416 0.926400 0.296770 0.262279
C14   C     C_3   0.251183 0.024684 0.255894 -0.105244
C15   C     C_3   0.187661 0.936722 0.285877 -0.132321
C16   C     C_3   0.225662 0.831950 0.210187 -0.077472
C17   C     C_3   0.289239 0.918705 0.180828 0.033104
C18   C     C_3   0.467767 0.331573 0.803224 -0.029480
C19   C     C_3   0.381094 0.466880 0.756447 -0.159472
C20   C     C_3   0.383271 0.367447 0.680579 0.044981
C21   C     C_3   0.472256 0.232118 0.726920 -0.135560
C22   C     C_3   0.331272 0.236915 0.743917 -0.135632
C23   C     C_R   0.706544 0.416248 0.390499 0.561147
C24   C     C_3   0.244728 0.372508 0.698205 0.292898
C25   C     C_3   0.240016 0.472026 0.774606 -0.084165
C26   C     C_3   0.329314 0.336474 0.820182 0.026635
C27   C     C_1   0.844468 0.329247 0.706524 -0.048194
C28   C     C_1   0.893596 0.295491 0.773484 -0.052870
C29   C     C_1   0.335848 0.817851 0.708729 -0.055046
C30   C     C_1   0.310454 0.845217 0.777487 -0.054235
C31   C     C_R   0.890470 0.310552 0.090098 0.547646
C32   C     C_R   0.318186 0.298150 0.120641 0.533704
C33   C     C_R   0.256992 0.959018 0.098911 0.581164
C34   C     C_R   0.355870 0.773545 0.626599 0.524865
C35   C     C_R   0.943856 0.276000 0.856134 0.554927
C36   C     C_R   0.308535 0.295573 0.892955 0.546320
C37   C     C_R   0.278628 0.887226 0.858394 0.550542
C38   C     C_R   0.410465 0.378268 0.600874 0.568689
C39   C     C_R   0.774596 0.379102 0.630077 0.529296
C40   C     C_1   0.340141 0.334638 0.275763 -0.048811
C41   C     C_1   0.328994 0.323787 0.204442 -0.068445
C42   C     C_3   0.831759 0.222582 0.214772 0.278138
Cr1   Cr    Cr6+3 0.608340 0.611040 0.520430 1.008598
Cr2   Cr    Cr6+3 0.287650 0.601120 0.489350 1.007501
Cr3   Cr    Cr6+3 0.604040 0.287870 0.490280 0.976234
Cr4   Cr    Cr6+3 0.054020 0.052700 0.970850 1.006420
Cr5   Cr    Cr6+3 0.059230 0.375120 0.993390 0.997209
Cr6   Cr    Cr6+3 0.374950 0.061200 0.992340 0.979917
H1    H     H_    0.591234 0.302684 0.238558 0.104588
H2    H     H_    0.202028 0.143244 0.255649 0.100842
H3    H     H_    0.087646 0.976583 0.314853 0.152460
H4    H     H_    0.155174 0.790475 0.174095 0.151587
H5    H     H_    0.408108 0.556468 0.760647 0.115171
H6    H     H_    0.568587 0.134999 0.707272 0.140249
H7    H     H_    0.312169 0.141891 0.741476 0.100267
H8    H     H_    0.144302 0.568483 0.795435 0.140274
H9    H     H_    0.985541 0.220158 0.333910 0.100027
H10   H     H_    0.985243 0.418639 0.239566 0.123262
H11   H     H_    0.710977 0.613317 0.280070 0.102279
H12   H     H_    0.590996 0.504860 0.141316 0.118181
H13   H     H_    0.420862 0.618405 0.251244 0.113810
H14   H     H_    0.536633 0.777030 0.189026 0.102605
O1    O     O_R   0.751220 0.499230 0.435170 -0.527366
O2    O     O_R   0.297880 0.469080 0.560050 -0.461962
O3    O     O_R   0.489720 0.254590 0.564810 -0.546096
O4    O     O_R   0.725220 0.304230 0.585080 -0.518258
O5    O     O_3   0.500010 0.500010 0.500020 -0.296989
O6    O     O_R   0.171830 0.913880 0.057510 -0.514906
O7    O     O_R   0.940690 0.186050 0.054730 -0.494292
O8    O     O_R   0.920470 0.405720 0.075010 -0.526413
O9    O     O_R   0.196690 0.370460 0.084120 -0.500690
O10   O     O_R   0.412990 0.180750 0.091610 -0.538434
O11   O     O_R   0.366620 0.943130 0.065760 -0.511486
O12   O     O_R   0.477220 0.727600 0.436870 -0.519693
O13   O     O_R   0.160510 0.906330 0.879210 -0.511889
O14   O     O_R   0.930190 0.179050 0.889450 -0.510489
O15   O     O_R   0.909140 0.398170 0.896710 -0.506876
O16   O     O_R   0.186190 0.363460 0.918830 -0.514593
O17   O     O_R   0.401670 0.173200 0.913310 -0.518920
O18   O     O_R   0.356120 0.936130 0.900470 -0.493014
O19   O     O_3   0.162740 0.163010 0.985530 -0.289167
O20   O     O_R   0.258650 0.745120 0.411470 -0.525418
O21   O     O_R   0.297070 0.467240 0.395960 -0.506302
O22   O     O_R   0.488830 0.252610 0.387790 -0.495004
O23   O     O_R   0.724400 0.302390 0.420980 -0.520466
O24   O     O_R   0.752100 0.501210 0.612190 -0.486821
O25   O     O_R   0.478040 0.729440 0.600970 -0.493634
O26   O     O_R   0.259530 0.747110 0.588490 -0.517381
C43   C     C_3   0.589927 0.313825 0.866834 -0.353074
H15   H     H_    0.660271 0.346834 0.843387 0.159342
H16   H     H_    0.547734 0.384215 0.921728 0.127862
H17   H     H_    0.650353 0.200201 0.881871 0.158343
O27   O     O_3   0.124116 0.411507 0.641198 -0.541887
C44   C     C_3   0.109062 0.290880 0.604330 0.010384
H18   H     H_    0.001417 0.333333 0.571837 0.194443
H19   H     H_    0.114252 0.219548 0.648542 0.103647
C45   C     C_3   0.213347 0.207523 0.540984 -0.260471
H20   H     H_    0.211715 0.283482 0.501122 0.216825
H21   H     H_    0.322805 0.147200 0.570316 0.182128
C46   C     C_3   0.171525 0.101272 0.489592 -0.475869
H22   H     H_    0.192258 0.011114 0.524712 0.169639
H23   H     H_    0.236296 0.060387 0.438055 0.168487
H24   H     H_    0.057132 0.153722 0.466343 0.148887
O28   O     O_3   0.887692 0.074277 0.190713 -0.578664
C47   C     C_3   0.779710 0.044268 0.147711 0.023045
H25   H     H_    0.724614 0.115393 0.097484 0.147826
H26   H     H_    0.700838 0.058581 0.188944 0.147027
C48   C     C_3   0.846735 0.887989 0.112784 -0.275734
H27   H     H_    0.925383 0.871385 0.070973 0.181756
H28   H     H_    0.903542 0.816130 0.162285 0.158506
C49   C     C_3   0.733824 0.848132 0.067603 -0.443773
H29   H     H_    0.655693 0.861659 0.108841 0.162621
H30   H     H_    0.785764 0.734058 0.043150 0.155113
H31   H     H_    0.676757 0.917062 0.016970 0.162363
O29   O     O_3   0.482557 0.985210 0.345341 -0.550528
C50   C     C_3   0.628106 0.882634 0.350388 0.005111
H32   H     H_    0.667734 0.850837 0.289782 0.110211
H33   H     H_    0.642939 0.787624 0.378950 0.166275
C51   C     C_3   0.718899 0.945818 0.401720 -0.241942
H34   H     H_    0.717617 0.031774 0.370142 0.199524
H35   H     H_    0.674656 0.992253 0.460555 0.193990
C52   C     C_3   0.873917 0.831549 0.416075 -0.468453
H36   H     H_    0.880452 0.744502 0.449069 0.160543
H37   H     H_    0.937382 0.881162 0.452476 0.159863
H38   H     H_    0.920710 0.784741 0.357940 0.150670

loop_
_geom_bond_atom_site_label_1
_geom_bond_atom_site_label_2
_ccdc_geom_bond_type
O27   C44   S    
C18   C21   S    
C48   H27   S    
C6    C7    S    
C3    C23   S    
C19   C20   S    
C1    C11   S    
C25   H8    S    
C3    C6    S    
Cr4   O14   S    
C45   H20   S    
Cr1   O1    S    
C7    C8    S    
C32   O10   A    
C14   H2    S    
Cr2   O2    S    
C47   H26   S    
C5    H10   S    
C1    O12   A    
Cr6   O17   S    
C8    C42   S    
Cr2   O20   S    
C5    C6    S    
O29   C50   S    
C26   C36   S    
Cr6   O19   S    
C12   O22   A    
C18   C19   S    
C9    C13   S    
O28   C47   S    
Cr4   O7    S    
C2    C7    S    
C11   C15   S    
C31   O8    A    
C20   C24   S    
C28   C35   S    
C27   C39   S    
C16   C17   S    
C18   C26   S    
C4    H9    S    
Cr3   O5    S    
C32   C41   S    
C15   H3    S    
C43   H16   S    
C9    C10   S    
Cr2   O21   S    
Cr1   O12   S    
C23   O1    A    
C37   O13   A    
C13   C14   S    
C8    C31   S    
C14   C17   S    
C17   C33   S    
Cr6   O10   S    
Cr6   O11   S    
Cr4   O13   S    
C45   H21   S    
C32   O9    A    
C38   O2    A    
C51   H35   S    
C37   O18   A    
C35   O14   A    
C9    H14   S    
C24   C25   S    
C44   C45   S    
C25   C26   S    
C29   C34   S    
C35   O15   A    
C46   H24   S    
C12   O21   A    
C12   C40   S    
Cr3   O23   S    
Cr5   O8    S    
Cr4   O6    S    
C29   C30   T    
C2    H1    S    
Cr4   O19   S    
C20   C38   S    
C38   O3    A    
C46   H23   S    
C49   H30   S    
C34   O26   A    
C47   C48   S    
C43   H17   S    
C44   H19   S    
Cr5   O9    S    
C13   O29   S    
C33   O11   A    
C40   C41   T    
Cr3   O3    S    
C39   O4    A    
C22   C24   S    
C10   H13   S    
Cr5   O15   S    
C52   H37   S    
C3    C4    S    
C7    H12   S    
Cr3   O4    S    
C45   C46   S    
C51   C52   S    
C9    C17   S    
C49   H29   S    
C18   C43   S    
C6    H11   S    
C16   H4    S    
C4    C5    S    
C36   O17   A    
C42   O28   S    
C5    C8    S    
C51   H34   S    
C48   C49   S    
C22   H7    S    
C47   H25   S    
C39   O24   A    
C50   C51   S    
Cr1   O25   S    
Cr6   O18   S    
C52   H38   S    
C2    C3    S    
C1    O20   A    
C23   O23   A    
C36   O16   A    
C24   O27   S    
C11   C13   S    
C19   H5    S    
C21   H6    S    
C48   H28   S    
C4    C42   S    
C2    C42   S    
C46   H22   S    
C50   H33   S    
C50   H32   S    
C49   H31   S    
Cr2   O26   S    
C34   O25   A    
Cr5   O19   S    
C44   H18   S    
C19   C25   S    
Cr1   O24   S    
C10   C11   S    
Cr3   O22   S    
C31   O7    A    
C20   C21   S    
C30   C37   S    
Cr1   O5    S    
C22   C26   S    
C27   C28   T    
C52   H36   S    
C14   C15   S    
Cr2   O5    S    
C10   C16   S    
Cr5   O16   S    
C43   H15   S    
C21   C22   S    
C15   C16   S    
C33   O6    A    
