data_mof_unit_pretest_1730.cif
_audit_creation_date              2013-03-05T16:14:03-0500
_audit_creation_method            fapswitch 2.2
_symmetry_space_group_name_H-M    P1
_symmetry_Int_Tables_number       1
_space_group_crystal_system       triclinic
_cell_length_a                    27.77856
_cell_length_b                    14.662452
_cell_length_c                    15.900665
_cell_angle_alpha                 89.954637
_cell_angle_beta                  90.047283
_cell_angle_gamma                 90.090602
_cell_volume                      6476.35719192

loop_
_atom_site_label
_atom_site_type_symbol
_atom_site_description
_atom_site_fract_x
_atom_site_fract_y
_atom_site_fract_z
_atom_type_partial_charge
O1    O     O_R   0.500050 0.424030 0.620640 -0.555945
O2    O     O_R   0.500050 0.575970 0.620640 -0.564670
C1    C     C_R   0.500079 0.499978 0.660214 0.818475
O3    O     O_R   0.569790 0.424080 0.500060 -0.577541
O4    O     O_R   0.569790 0.575920 0.500060 -0.592482
C2    C     C_R   0.592914 0.500149 0.500966 0.795308
Cu1   Cu    Cu3+1 0.500060 0.410080 0.500090 1.041829
Cu2   Cu    Cu3+1 0.500060 0.589920 0.500090 1.025582
O5    O     O_R   0.500050 0.424100 0.379510 -0.556715
O6    O     O_R   0.500050 0.575900 0.379510 -0.562997
O7    O     O_R   0.430320 0.424060 0.500090 -0.548291
O8    O     O_R   0.430320 0.575940 0.500090 -0.544708
C3    C     C_R   0.499926 0.500020 0.339894 0.831984
C4    C     C_R   0.407327 0.499819 0.498713 0.840379
C5    C     C_R   0.822174 0.435256 0.552378 0.572539
O9    O     O_2   0.796357 0.400524 0.616452 -0.488365
N1    N     N_R   0.798592 0.483629 0.491706 -0.479091
C6    C     C_R   0.822408 0.525599 0.427535 0.549112
C7    C     C_R   0.724606 0.566343 0.531700 0.216739
C8    C     C_R   0.674157 0.571649 0.534011 0.134777
C9    C     C_R   0.669361 0.423498 0.464985 -0.228557
C10   C     C_R   0.719308 0.419016 0.462390 -0.122041
C11   C     C_R   0.747084 0.489971 0.495197 0.255168
C12   C     C_R   0.898307 0.471630 0.485215 -0.128432
C13   C     C_R   0.872736 0.424405 0.549060 -0.097172
C14   C     C_R   0.898580 0.367498 0.605731 0.171434
C15   C     C_R   0.873028 0.522891 0.423726 0.004030
C16   C     C_R   0.646067 0.499473 0.499991 -0.134662
H1    H     H_    0.648828 0.367514 0.438603 0.178281
H2    H     H_    0.736611 0.360152 0.434643 0.159124
C17   C     C_R   0.354360 0.499063 0.496497 -0.104683
C18   C     C_R   0.025291 0.441777 0.555373 0.082199
C19   C     C_R   0.025500 0.498687 0.409876 0.006105
C20   C     C_R   0.050674 0.473651 0.483873 0.035644
C21   C     C_R   0.050866 0.430762 0.631466 -0.152495
C22   C     C_R   0.100636 0.440731 0.634588 -0.147953
C23   C     C_R   0.126491 0.463608 0.562110 -0.016164
C24   C     C_R   0.101506 0.480735 0.486657 -0.050580
C25   C     C_R   0.127370 0.504963 0.414096 -0.079886
C26   C     C_R   0.177756 0.511416 0.418083 0.563668
N2    N     N_R   0.201490 0.493642 0.491819 -0.456391
C27   C     C_R   0.176904 0.470384 0.563313 0.559143
C28   C     C_R   0.277419 0.559655 0.543620 -0.116253
C29   C     C_R   0.327925 0.561495 0.546118 0.102155
C30   C     C_R   0.329555 0.435901 0.445016 0.094816
C31   C     C_R   0.279409 0.434694 0.444427 -0.111085
C32   C     C_R   0.253190 0.496192 0.493322 0.270718
O10   O     O_2   0.201204 0.452419 0.634956 -0.516235
C33   C     C_R   0.974854 0.426337 0.549407 0.018033
C34   C     C_R   0.949308 0.468543 0.483145 0.031842
C35   C     C_R   0.974736 0.509213 0.415485 0.038153
C36   C     C_R   0.949410 0.368457 0.605337 0.075525
H3    H     H_    0.256744 0.607123 0.581177 0.157198
H4    H     H_    0.118737 0.430657 0.694241 0.195650
H5    H     H_    0.032687 0.418463 0.690375 0.174802
O11   O     O_2   0.796785 0.569898 0.368114 -0.494524
C37   C     C_R   0.899158 0.571292 0.361824 0.181795
C38   C     C_R   0.052576 0.513198 0.334611 0.133454
C39   C     C_R   0.102702 0.518479 0.338442 -0.107022
O12   O     O_2   0.202854 0.535623 0.348903 -0.520085
C40   C     C_R   0.949164 0.564678 0.359153 -0.275563
H6    H     H_    0.122427 0.530452 0.280675 0.204153
H7    H     H_    0.260535 0.385955 0.405234 0.177577
H8    H     H_    0.967736 0.607517 0.314609 0.150822
C41   C     C_3   0.501764 0.400213 0.952489 0.046224
C42   C     C_3   0.455664 0.554282 0.952141 0.041096
C43   C     C_3   0.454070 0.548017 0.049338 -0.451649
C44   C     C_3   0.498140 0.401011 0.049673 -0.446827
H9    H     H_    0.463796 0.368617 0.069874 0.222277
H10   H     H_    0.421813 0.508598 0.069443 0.219755
H11   H     H_    0.460656 0.627341 0.935030 0.147047
H12   H     H_    0.537379 0.370787 0.935505 0.135624
H13   H     H_    0.449641 0.617098 0.076981 0.185516
H14   H     H_    0.527189 0.358521 0.077495 0.182094
C45   C     C_1   0.499790 0.500060 0.250410 -0.116527
C46   C     C_3   0.499630 0.499714 0.917072 0.144809
C47   C     C_3   0.500261 0.500595 0.082848 0.202375
C48   C     C_3   0.546669 0.550588 0.048191 0.350052
C49   C     C_3   0.545586 0.549234 0.949280 -0.573000
C50   C     C_1   0.499835 0.500188 0.174998 0.037929
C51   C     C_1   0.499867 0.499848 0.825052 0.007282
C52   C     C_1   0.500019 0.499938 0.749651 -0.110559
H15   H     H_    0.578191 0.514953 0.923745 0.181848
H16   H     H_    0.546814 0.619824 0.923454 0.190612
C53   C     C_3   0.517837 0.945909 0.413021 -0.077582
C54   C     C_3   0.522850 0.053589 0.417063 -0.074011
C55   C     C_3   0.531887 0.947420 0.568543 0.001545
C56   C     C_3   0.526259 0.053933 0.575283 0.003185
H17   H     H_    0.561953 0.069368 0.422393 0.128594
H18   H     H_    0.554583 0.917745 0.403012 0.141289
H19   H     H_    0.569415 0.935384 0.546593 0.104127
H20   H     H_    0.563185 0.083512 0.572895 0.108701
N3    N     N_1   0.499020 0.275030 0.498610 -0.131231
N4    N     N_1   0.499020 0.724970 0.498610 -0.135975
C57   C     C_3   0.497987 0.907658 0.498617 -0.077680
C58   C     C_3   0.497582 0.092321 0.497880 -0.085007
C59   C     C_3   0.445156 0.052620 0.497366 0.027466
C60   C     C_3   0.445678 0.946111 0.510180 0.030446
C61   C     C_1   0.498399 0.195279 0.498199 0.267023
C62   C     C_1   0.498564 0.804724 0.498436 0.253430
H21   H     H_    0.422407 0.916183 0.460448 0.151044
H22   H     H_    0.430830 0.064104 0.432859 0.168754
N5    N     N_3   0.752668 0.638743 0.567444 -0.536497
H23   H     H_    0.774430 0.666457 0.520292 0.237934
H24   H     H_    0.775032 0.611096 0.613798 0.233094
N6    N     N_3   0.875541 0.629212 0.301986 -0.503764
H25   H     H_    0.884364 0.606533 0.241600 0.226452
H26   H     H_    0.889096 0.695356 0.308976 0.221652
N7    N     N_3   0.031812 0.508144 0.251979 -0.583622
H27   H     H_    0.999699 0.470964 0.252052 0.241987
H28   H     H_    0.026601 0.574015 0.228621 0.220926
I1    I     I_    0.364307 0.343849 0.361316 -0.250954
I2    I     I_    0.452054 0.303335 0.898323 -0.197857
I3    I     I_    0.386380 0.523162 0.897584 -0.265708
N8    N     N_3   0.590221 0.503970 0.079320 -0.555552
H29   H     H_    0.620723 0.541076 0.061321 0.228713
H30   H     H_    0.593877 0.440167 0.050848 0.208248
N9    N     N_3   0.547772 0.645490 0.078942 -0.541248
H31   H     H_    0.520754 0.683995 0.050181 0.217593
H32   H     H_    0.580200 0.676190 0.060990 0.231286
I4    I     I_    0.536632 0.871137 0.685516 -0.251453
I5    I     I_    0.500874 0.105039 0.695252 -0.160491
I6    I     I_    0.409744 0.895771 0.621954 -0.179544
I7    I     I_    0.391074 0.129466 0.565696 -0.166583
I8    I     I_    0.478583 0.890513 0.306052 -0.276023
I9    I     I_    0.503860 0.127235 0.302924 -0.264900
I10   I     I_    0.864353 0.270952 0.688860 -0.268128
N10   N     N_3   0.352465 0.625249 0.599916 -0.522956
H33   H     H_    0.327897 0.669300 0.628612 0.242391
H34   H     H_    0.368726 0.587887 0.648218 0.235025
N11   N     N_3   0.975410 0.303091 0.654925 -0.585181
H35   H     H_    0.966730 0.312205 0.718327 0.243887
H36   H     H_    0.965472 0.237374 0.636201 0.258241
N12   N     N_3   0.652647 0.649577 0.573352 -0.529540
H37   H     H_    0.628786 0.627332 0.619902 0.228408
H38   H     H_    0.633893 0.686919 0.527965 0.246440

loop_
_geom_bond_atom_site_label_1
_geom_bond_atom_site_label_2
_geom_bond_distance
_ccdc_geom_bond_type
C55   C56   1.573541 S    
C56   C58   1.569992 S    
C19   C38   1.429612 A    
C26   O12   1.349789 S    
C55   H19   1.114006 S    
C54   I9    2.176055 S    
C38   N7    1.436411 S    
N2    C27   1.369296 A    
C53   I8    2.176716 S    
C21   C22   1.390867 A    
C43   C47   1.554008 S    
C12   C15   1.418924 A    
C4    C17   1.471756 S    
N10   H33   1.045706 S    
C59   C60   1.574839 S    
C30   I1    2.129306 S    
Cu1   Cu2   2.636894 S    
C47   C48   1.581269 S    
Cu1   O7    1.948416 S    
N1    C11   1.435114 S    
C41   C46   1.564624 S    
C22   C23   1.398740 A    
C48   N9    1.475527 S    
C59   I7    2.171868 S    
N7    H28   1.044758 S    
C49   H16   1.113697 S    
O7    C4    1.282399 A    
C5    C13   1.414800 A    
N6    H25   1.045817 S    
C44   H14   1.111545 S    
N8    H29   1.046187 S    
C58   C61   1.509758 S    
C5    N1    1.364636 A    
C23   C27   1.403855 A    
O5    C3    1.278617 A    
N9    H31   1.044765 S    
O1    Cu1   1.927869 S    
C7    N5    1.433599 S    
C28   H3    1.083226 S    
C2    C16   1.476671 S    
C3    C45   1.422858 S    
C44   H9    1.112560 S    
N8    H30   1.044740 S    
C55   C57   1.568587 S    
C46   C49   1.554257 S    
C43   H13   1.111530 S    
C42   I3    2.158697 S    
C45   C50   1.199106 T    
N3    C61   1.169474 T    
C59   H22   1.112678 S    
C6    O11   1.349300 S    
C41   C44   1.548705 S    
C37   N6    1.433993 S    
C25   C39   1.398062 A    
C20   C24   1.416349 A    
C9    C10   1.389764 A    
O3    Cu1   1.947523 S    
C51   C52   1.198937 T    
C12   C34   1.417941 A    
C60   I6    2.167575 S    
Cu1   N3    1.980487 S    
C57   C60   1.570447 S    
C17   C29   1.415609 A    
C21   H5    1.079417 S    
C18   C21   1.411867 A    
C56   H20   1.113707 S    
Cu2   N4    1.980541 S    
C12   C13   1.418854 A    
C48   N8    1.475457 S    
C56   I5    2.168820 S    
C15   C37   1.413431 A    
C25   C26   1.404101 A    
C55   I4    2.173606 S    
C48   C49   1.573154 S    
N12   H38   1.044824 S    
C8    C16   1.420928 A    
C34   C35   1.418048 A    
C38   C39   1.395754 A    
C53   C54   1.586106 S    
C9    H1    1.083417 S    
O6    C3    1.278964 A    
O1    C1    1.279503 A    
C18   C20   1.416874 A    
C40   H8    1.077613 S    
C7    C11   1.408729 A    
C28   C29   1.403714 A    
C23   C24   1.408150 A    
C14   C36   1.412057 A    
C42   H11   1.113506 S    
N4    C62   1.169483 T    
Cu2   O8    1.947771 S    
C33   C36   1.417258 A    
C42   C46   1.564477 S    
C58   C59   1.567508 S    
C1    C52   1.422116 S    
N1    C6    1.362468 A    
N2    C32   1.436759 S    
N5    H24   1.045509 S    
C27   O10   1.349655 S    
C54   C58   1.571766 S    
O3    C2    1.286297 A    
C26   N2    1.369672 A    
C9    C16   1.404763 A    
O8    C4    1.285266 A    
N11   H35   1.045487 S    
C60   H21   1.111111 S    
C47   C50   1.465308 S    
C44   C47   1.553916 S    
Cu1   O5    1.928130 S    
C31   C32   1.397183 A    
C29   N10   1.438247 S    
C39   H6    1.083980 S    
C10   H2    1.082990 S    
C57   C62   1.509383 S    
C36   N11   1.435961 S    
C41   I2    2.158724 S    
O2    Cu2   1.927547 S    
C6    C15   1.408131 A    
N11   H36   1.045359 S    
C54   H17   1.113423 S    
N10   H34   1.045742 S    
C46   C51   1.463199 S    
O4    Cu2   1.948169 S    
C53   H18   1.113322 S    
C37   C40   1.393311 A    
N12   H37   1.045629 S    
C19   C35   1.421682 A    
C41   H12   1.113473 S    
C31   H7    1.083002 S    
C43   H10   1.112534 S    
C7    C8    1.404192 A    
O2    C1    1.279203 A    
C13   C14   1.422419 A    
N7    H27   1.044697 S    
C49   H15   1.113654 S    
C35   C40   1.402830 A    
C53   C57   1.571647 S    
O4    C2    1.284261 A    
N6    H26   1.045781 S    
C24   C25   1.404799 A    
C19   C20   1.416682 A    
C42   C43   1.548816 S    
C14   I10   2.156353 S    
N9    H32   1.046174 S    
C18   C33   1.422002 A    
C22   H4    1.083313 S    
C30   C31   1.393117 A    
Cu2   O6    1.928454 S    
C33   C34   1.412711 A    
C17   C30   1.414496 A    
N5    H23   1.045071 S    
C10   C11   1.395527 A    
C8    N12   1.434511 S    
C28   C32   1.398861 A    
C5    O9    1.345685 S    
