data_mof_unit_pretest_789.cif
_audit_creation_date              2012-12-10T19:57:56-0500
_audit_creation_method            fapswitch 2.2
_symmetry_space_group_name_H-M    P1
_symmetry_Int_Tables_number       1
_space_group_crystal_system       triclinic
_cell_length_a                    21.070235
_cell_length_b                    20.808315
_cell_length_c                    14.157724
_cell_angle_alpha                 89.372755
_cell_angle_beta                  89.875667
_cell_angle_gamma                 89.947597
_cell_volume                      6206.86807559

loop_
_atom_site_label
_atom_site_type_symbol
_atom_type_description
_atom_site_fract_x
_atom_site_fract_y
_atom_site_fract_z
_atom_type_partial_charge
C1    C     C_R   0.087073 0.414569 0.500309 0.921530
C2    C     C_R   0.914794 0.587497 0.499707 0.925271
C3    C     C_R   0.914734 0.412624 0.500379 0.925281
C4    C     C_R   0.087057 0.585411 0.499568 0.922422
C5    C     C_R   0.587076 0.914571 0.500308 0.921531
C6    C     C_R   0.414795 0.087498 0.499707 0.925258
C7    C     C_R   0.414734 0.912621 0.500380 0.925252
C8    C     C_R   0.587053 0.085412 0.499568 0.922450
C9    C     C_R   0.790636 0.296168 0.577514 0.449961
C10   C     C_R   0.199645 0.713792 0.429005 0.499950
C11   C     C_R   0.243510 0.654000 0.564505 0.477757
C12   C     C_R   0.843689 0.256243 0.434878 0.501657
C13   C     C_R   0.244527 0.347448 0.435507 0.479921
C14   C     C_R   0.844392 0.744495 0.565332 0.500814
C15   C     C_R   0.792894 0.705860 0.421005 0.450623
C16   C     C_R   0.200472 0.286789 0.570301 0.497458
C17   C     C_R   0.290652 0.796131 0.577501 0.450009
C18   C     C_R   0.699555 0.213862 0.429027 0.500162
C19   C     C_R   0.743474 0.154059 0.564492 0.477785
C20   C     C_R   0.343781 0.756179 0.434944 0.501599
C21   C     C_R   0.744498 0.847409 0.435430 0.480003
C22   C     C_R   0.344369 0.244477 0.565385 0.500802
C23   C     C_R   0.292924 0.205893 0.420987 0.450600
C24   C     C_R   0.700506 0.786830 0.570350 0.497539
C25   C     C_R   0.829582 0.350314 0.574317 -0.336407
C26   C     C_R   0.147260 0.673840 0.429048 -0.317321
C27   C     C_R   0.189718 0.614987 0.564300 -0.318511
C28   C     C_R   0.881165 0.310765 0.432377 -0.300552
C29   C     C_R   0.190319 0.386034 0.435795 -0.318560
C30   C     C_R   0.881287 0.689488 0.568138 -0.298581
C31   C     C_R   0.831191 0.651220 0.424653 -0.337140
C32   C     C_R   0.147658 0.326238 0.570219 -0.322043
C33   C     C_R   0.329573 0.850300 0.574290 -0.336521
C34   C     C_R   0.647203 0.173870 0.429056 -0.317425
C35   C     C_R   0.689699 0.115024 0.564289 -0.318572
C36   C     C_R   0.381230 0.810720 0.432429 -0.300480
C37   C     C_R   0.690290 0.885994 0.435723 -0.318598
C38   C     C_R   0.381263 0.189470 0.568180 -0.298593
C39   C     C_R   0.331220 0.151251 0.424625 -0.337153
C40   C     C_R   0.647698 0.826287 0.570280 -0.322087
C41   C     C_R   0.873831 0.357549 0.501645 -0.165678
C42   C     C_R   0.141530 0.626359 0.498586 -0.155553
C43   C     C_R   0.141833 0.373918 0.501029 -0.152519
C44   C     C_R   0.874305 0.643012 0.498388 -0.167023
C45   C     C_R   0.373848 0.857529 0.501650 -0.165696
C46   C     C_R   0.641504 0.126380 0.498585 -0.155527
C47   C     C_R   0.641836 0.873920 0.501027 -0.152546
C48   C     C_R   0.374308 0.143017 0.498391 -0.167063
C49   C     C_R   0.972270 0.448977 0.106138 0.359922
C50   C     C_R   0.977325 0.552668 0.894557 0.358214
C51   C     C_R   0.030845 0.549141 0.104187 0.382756
C52   C     C_R   0.025199 0.446638 0.895247 0.381898
C53   C     C_R   0.472204 0.949014 0.106135 0.359937
C54   C     C_R   0.477379 0.052696 0.894554 0.358233
C55   C     C_R   0.530898 0.049109 0.104188 0.382764
C56   C     C_R   0.525145 0.946614 0.895249 0.381881
C57   C     C_R   0.796787 0.250855 0.505115 -0.048334
C58   C     C_R   0.247669 0.703210 0.496322 -0.032578
C59   C     C_R   0.248740 0.297965 0.503259 -0.033666
C60   C     C_R   0.798329 0.750668 0.494183 -0.049994
C61   C     C_R   0.296854 0.750791 0.505147 -0.048296
C62   C     C_R   0.747597 0.203284 0.496323 -0.032667
C63   C     C_R   0.748741 0.797964 0.503239 -0.033708
C64   C     C_R   0.298335 0.250676 0.494201 -0.049912
C65   C     C_R   0.973379 0.450118 0.205485 -0.152607
C66   C     C_R   0.978727 0.552224 0.795185 -0.144656
C67   C     C_R   0.027962 0.549153 0.203598 -0.160459
C68   C     C_R   0.022141 0.447569 0.795506 -0.180095
C69   C     C_R   0.473319 0.950151 0.205482 -0.152563
C70   C     C_R   0.478781 0.052248 0.795181 -0.144650
C71   C     C_R   0.528015 0.049122 0.203599 -0.160447
C72   C     C_R   0.522088 0.947547 0.795508 -0.180081
C73   C     C_R   0.001605 0.499020 0.053310 -0.044891
C74   C     C_R   0.001195 0.499338 0.946533 -0.043883
C75   C     C_R   0.501600 0.999023 0.053309 -0.044894
C76   C     C_R   0.501194 0.999341 0.946532 -0.044028
N1    N     N_R   0.000000 0.500000 0.252470 -0.128571
N2    N     N_R   0.000000 0.500000 0.747530 -0.124858
N3    N     N_R   0.500000 0.000000 0.252470 -0.128594
N4    N     N_R   0.500000 0.000000 0.747530 -0.124860
O1    O     O_R   0.065470 0.434530 0.579480 -0.627602
O2    O     O_R   0.934530 0.565470 0.420520 -0.611673
O3    O     O_R   0.934530 0.565470 0.579480 -0.626481
O4    O     O_R   0.065470 0.434530 0.420520 -0.611160
O5    O     O_R   0.934530 0.434530 0.420520 -0.628085
O6    O     O_R   0.065470 0.565470 0.579480 -0.613533
O7    O     O_R   0.065470 0.565470 0.420520 -0.627604
O8    O     O_R   0.934530 0.434530 0.579480 -0.611812
O9    O     O_R   0.565470 0.934530 0.579480 -0.627600
O10   O     O_R   0.434530 0.065470 0.420520 -0.611677
O11   O     O_R   0.434530 0.065470 0.579480 -0.626470
O12   O     O_R   0.565470 0.934530 0.420520 -0.611166
O13   O     O_R   0.434530 0.934530 0.420520 -0.628078
O14   O     O_R   0.565470 0.065470 0.579480 -0.613550
O15   O     O_R   0.565470 0.065470 0.420520 -0.627627
O16   O     O_R   0.434530 0.934530 0.579480 -0.611794
Zn1   Zn    Zn3+2 1.000000 0.500000 0.606140 0.929656
Zn2   Zn    Zn3+2 0.000000 0.500000 0.393860 0.931706
Zn3   Zn    Zn3+2 0.500000 1.000000 0.606140 0.929649
Zn4   Zn    Zn3+2 0.500000 0.000000 0.393860 0.931698
O17   O     O_3   0.946848 0.395960 0.062458 -0.567341
C77   C     C_3   0.882892 0.408566 0.039554 0.113916
H1    H     H_    0.855585 0.424206 0.102859 0.080497
H2    H     H_    0.879511 0.446472 0.983727 0.102975
C78   C     C_3   0.852257 0.347139 0.002963 -0.333614
H3    H     H_    0.853861 0.309366 0.059044 0.229458
H4    H     H_    0.801675 0.356918 0.986025 0.152910
C79   C     C_3   0.885788 0.322525 0.914666 -0.784124
H5    H     H_    0.884606 0.359607 0.857640 0.233660
H6    H     H_    0.861546 0.278511 0.889813 0.204462
H7    H     H_    0.935930 0.310065 0.930509 0.309889
O18   O     O_3   0.957102 0.607631 0.939344 -0.577985
C80   C     C_3   0.892285 0.601150 0.962692 0.113967
H8    H     H_    0.863409 0.591780 0.898401 0.086450
H9    H     H_    0.884851 0.561266 0.014561 0.100791
C81   C     C_3   0.868564 0.663631 0.006348 -0.338267
H10   H     H_    0.874913 0.703803 0.954794 0.227438
H11   H     H_    0.817073 0.659093 0.022141 0.152300
C82   C     C_3   0.903894 0.679258 0.097372 -0.787326
H12   H     H_    0.897646 0.639885 0.150214 0.233698
H13   H     H_    0.884877 0.724544 0.127043 0.208799
H14   H     H_    0.955302 0.686092 0.083126 0.311604
O19   O     O_3   0.060171 0.599776 0.057797 -0.579628
C83   C     C_3   0.124031 0.583032 0.040232 0.117792
H15   H     H_    0.150040 0.576417 0.108100 0.090432
H16   H     H_    0.127614 0.537864 0.999076 0.111044
C84   C     C_3   0.156455 0.637011 0.984084 -0.349894
H17   H     H_    0.153739 0.682410 0.024563 0.226556
H18   H     H_    0.207369 0.624687 0.974203 0.156413
C85   C     C_3   0.126073 0.647295 0.887196 -0.791885
H19   H     H_    0.128769 0.602547 0.845247 0.233064
H20   H     H_    0.151565 0.686168 0.848570 0.213478
H21   H     H_    0.075667 0.661931 0.894824 0.311467
O20   O     O_3   0.048292 0.393198 0.943112 -0.575736
C86   C     C_3   0.113803 0.385872 0.924525 0.103111
H22   H     H_    0.121224 0.367739 0.851708 0.102600
H23   H     H_    0.140054 0.432029 0.932174 0.100880
C87   C     C_3   0.141865 0.336441 0.993430 -0.321589
H24   H     H_    0.116192 0.290082 0.986538 0.222116
H25   H     H_    0.192512 0.328174 0.975039 0.165688
C88   C     C_3   0.137750 0.358799 0.095672 -0.819461
H26   H     H_    0.087506 0.365672 0.117062 0.301810
H27   H     H_    0.163933 0.404667 0.104415 0.221283
H28   H     H_    0.159109 0.321722 0.142772 0.219778
O21   O     O_3   0.446726 0.896023 0.062462 -0.567340
C89   C     C_3   0.382806 0.908727 0.039433 0.114063
H29   H     H_    0.355477 0.924453 0.102674 0.080405
H30   H     H_    0.379529 0.946609 0.983555 0.102958
C90   C     C_3   0.352093 0.847334 0.002863 -0.333766
H31   H     H_    0.353559 0.809595 0.059005 0.229428
H32   H     H_    0.301549 0.857205 0.985772 0.152861
C91   C     C_3   0.385673 0.822584 0.914691 -0.783856
H33   H     H_    0.384635 0.859631 0.857608 0.233719
H34   H     H_    0.361368 0.778604 0.889844 0.204384
H35   H     H_    0.435772 0.810023 0.930690 0.309858
O22   O     O_3   0.457209 0.107678 0.939340 -0.578006
C92   C     C_3   0.392382 0.101268 0.962667 0.113934
H36   H     H_    0.363503 0.091958 0.898360 0.086517
H37   H     H_    0.384893 0.061374 0.014500 0.100763
C93   C     C_3   0.368729 0.163760 0.006371 -0.338230
H38   H     H_    0.375140 0.203947 0.954859 0.227420
H39   H     H_    0.317228 0.159282 0.022131 0.152307
C94   C     C_3   0.404057 0.179302 0.097430 -0.787419
H40   H     H_    0.397747 0.139913 0.150231 0.233696
H41   H     H_    0.385090 0.224597 0.127136 0.208834
H42   H     H_    0.455476 0.186076 0.083219 0.311607
O23   O     O_3   0.560275 0.099717 0.057805 -0.579646
C95   C     C_3   0.624102 0.082893 0.040160 0.117851
H43   H     H_    0.650130 0.076195 0.107993 0.090373
H44   H     H_    0.627602 0.037750 0.998940 0.111059
C96   C     C_3   0.656579 0.136862 0.984056 -0.349956
H45   H     H_    0.653960 0.182232 0.024610 0.226583
H46   H     H_    0.707467 0.124466 0.974092 0.156390
C97   C     C_3   0.626154 0.147267 0.887223 -0.791767
H47   H     H_    0.628752 0.102549 0.845200 0.233108
H48   H     H_    0.651682 0.186128 0.848625 0.213430
H49   H     H_    0.575776 0.161977 0.894938 0.311480
O24   O     O_3   0.548182 0.893150 0.943116 -0.575740
C98   C     C_3   0.613683 0.885747 0.924530 0.103118
H50   H     H_    0.621081 0.867597 0.851722 0.102593
H51   H     H_    0.639983 0.931873 0.932157 0.100886
C99   C     C_3   0.641693 0.836298 0.993460 -0.321635
H52   H     H_    0.615980 0.789965 0.986577 0.222096
H53   H     H_    0.692330 0.827978 0.975079 0.165706
C100  C     C_3   0.637592 0.858677 0.095694 -0.819475
H54   H     H_    0.587355 0.865589 0.117078 0.301809
H55   H     H_    0.663803 0.904524 0.104421 0.221297
H56   H     H_    0.658923 0.821593 0.142811 0.219790
O25   O     O_3   0.739420 0.291018 0.639523 -0.640823
C101  C     C_3   0.755531 0.305656 0.733923 0.122931
H57   H     H_    0.807329 0.311461 0.746273 0.088958
H58   H     H_    0.740736 0.264678 0.779760 0.135526
C102  C     C_3   0.719988 0.365913 0.765751 -0.374559
H59   H     H_    0.734956 0.377875 0.838657 0.171832
H60   H     H_    0.732293 0.407188 0.718851 0.208610
C103  C     C_3   0.648134 0.356112 0.764694 -0.797412
H61   H     H_    0.631605 0.345492 0.692088 0.278803
H62   H     H_    0.624162 0.400545 0.788884 0.230563
H63   H     H_    0.634584 0.315845 0.812770 0.244033
O26   O     O_3   0.204711 0.762128 0.361456 -0.625875
C104  C     C_3   0.178281 0.819924 0.396175 0.074494
H64   H     H_    0.210900 0.859683 0.375825 0.169931
H65   H     H_    0.173621 0.821425 0.474752 0.151299
C105  C     C_3   0.113410 0.832305 0.351021 -0.354931
H66   H     H_    0.117524 0.829007 0.272939 0.237184
H67   H     H_    0.079178 0.795289 0.376115 0.213385
C106  C     C_3   0.087992 0.898645 0.376425 -0.960052
H68   H     H_    0.085017 0.903597 0.454286 0.270717
H69   H     H_    0.039812 0.905216 0.346155 0.267942
H70   H     H_    0.119569 0.936751 0.347322 0.263610
O27   O     O_3   0.295223 0.642635 0.623535 -0.642785
C107  C     C_3   0.277522 0.629826 0.718510 0.130373
H71   H     H_    0.227034 0.641009 0.734978 0.092487
H72   H     H_    0.305899 0.661737 0.764497 0.140514
C108  C     C_3   0.292346 0.559870 0.745517 -0.376183
H73   H     H_    0.277064 0.551084 0.819735 0.169736
H74   H     H_    0.265432 0.526647 0.699731 0.210252
C109  C     C_3   0.363088 0.544820 0.736936 -0.806997
H75   H     H_    0.379107 0.550457 0.662496 0.278161
H76   H     H_    0.371886 0.494403 0.759883 0.227101
H77   H     H_    0.391174 0.577263 0.782491 0.244217
O28   O     O_3   0.847829 0.212785 0.361769 -0.624489
C110  C     C_3   0.879201 0.156255 0.393045 0.066567
H78   H     H_    0.859592 0.115458 0.352442 0.172015
H79   H     H_    0.870904 0.144461 0.469115 0.161592
C111  C     C_3   0.950566 0.161038 0.373336 -0.361448
H80   H     H_    0.958452 0.172926 0.297482 0.238800
H81   H     H_    0.971363 0.200004 0.416469 0.215523
C112  C     C_3   0.984291 0.097999 0.397228 -0.962206
H82   H     H_    0.977203 0.085268 0.472924 0.271806
H83   H     H_    0.035915 0.103195 0.383319 0.264027
H84   H     H_    0.965746 0.058566 0.352886 0.265388
O29   O     O_3   0.296594 0.359329 0.377015 -0.642579
C113  C     C_3   0.279621 0.374706 0.282648 0.128937
H85   H     H_    0.229290 0.363979 0.264977 0.090627
H86   H     H_    0.308365 0.343996 0.235159 0.141325
C114  C     C_3   0.294727 0.445251 0.259849 -0.375323
H87   H     H_    0.279759 0.456149 0.186158 0.168131
H88   H     H_    0.267751 0.477308 0.307569 0.211568
C115  C     C_3   0.365487 0.459669 0.269406 -0.806788
H89   H     H_    0.381142 0.452255 0.343615 0.277356
H90   H     H_    0.374575 0.510490 0.248906 0.227376
H91   H     H_    0.393672 0.428135 0.222370 0.244290
O30   O     O_3   0.847867 0.787321 0.639324 -0.625616
C116  C     C_3   0.877845 0.844855 0.609000 0.065778
H92   H     H_    0.857346 0.884784 0.650709 0.171610
H93   H     H_    0.869243 0.857250 0.533281 0.161893
C117  C     C_3   0.949322 0.841481 0.627879 -0.361300
H94   H     H_    0.957629 0.829055 0.703407 0.237276
H95   H     H_    0.970939 0.803402 0.583712 0.216034
C118  C     C_3   0.981443 0.905521 0.604953 -0.963127
H96   H     H_    0.973913 0.918817 0.529594 0.271487
H97   H     H_    0.033196 0.901457 0.618199 0.263886
H98   H     H_    0.961995 0.944059 0.650320 0.265207
O31   O     O_3   0.742604 0.711744 0.357788 -0.638850
C119  C     C_3   0.760251 0.698238 0.263451 0.125252
H99   H     H_    0.812187 0.691892 0.252490 0.089763
H100  H     H_    0.746627 0.740002 0.218386 0.135709
C120  C     C_3   0.724731 0.638876 0.228676 -0.377869
H101  H     H_    0.740947 0.627678 0.155963 0.169109
H102  H     H_    0.735780 0.596861 0.274822 0.209207
C121  C     C_3   0.652975 0.649555 0.227477 -0.794886
H103  H     H_    0.635119 0.659172 0.299840 0.279403
H104  H     H_    0.629070 0.605838 0.200818 0.229780
H105  H     H_    0.640739 0.690748 0.180343 0.243656
O32   O     O_3   0.205751 0.238449 0.637782 -0.628388
C122  C     C_3   0.180565 0.180305 0.602657 0.076619
H106  H     H_    0.213915 0.141090 0.622706 0.170179
H107  H     H_    0.176102 0.178967 0.524066 0.149724
C123  C     C_3   0.115842 0.166639 0.647819 -0.357675
H108  H     H_    0.119602 0.170236 0.725885 0.234657
H109  H     H_    0.080883 0.202876 0.622477 0.213339
C124  C     C_3   0.092053 0.099680 0.622829 -0.959197
H110  H     H_    0.089638 0.094338 0.545000 0.270377
H111  H     H_    0.043862 0.092213 0.652900 0.267463
H112  H     H_    0.124310 0.062355 0.652446 0.263257
O33   O     O_3   0.239410 0.790964 0.639463 -0.640872
C125  C     C_3   0.255440 0.805736 0.733853 0.122621
H113  H     H_    0.307222 0.811604 0.746274 0.088986
H114  H     H_    0.240642 0.764800 0.779772 0.135554
C126  C     C_3   0.219815 0.865999 0.765454 -0.374322
H115  H     H_    0.234724 0.878072 0.838351 0.171756
H116  H     H_    0.232115 0.907227 0.718454 0.208595
C127  C     C_3   0.147972 0.856123 0.764313 -0.797382
H117  H     H_    0.131502 0.845374 0.691712 0.278759
H118  H     H_    0.123935 0.900572 0.788328 0.230573
H119  H     H_    0.134423 0.815912 0.812498 0.243988
O34   O     O_3   0.704608 0.262185 0.361453 -0.625840
C128  C     C_3   0.678170 0.319984 0.396147 0.074427
H120  H     H_    0.710573 0.359788 0.375236 0.170035
H121  H     H_    0.673918 0.321655 0.474757 0.151336
C129  C     C_3   0.613035 0.332078 0.351660 -0.355342
H122  H     H_    0.616732 0.328484 0.273569 0.237289
H123  H     H_    0.578996 0.295108 0.377467 0.213300
C130  C     C_3   0.587644 0.398475 0.376814 -0.959933
H124  H     H_    0.585113 0.403737 0.454658 0.270696
H125  H     H_    0.539279 0.404833 0.347119 0.267962
H126  H     H_    0.618976 0.436523 0.346980 0.263625
O35   O     O_3   0.795208 0.142706 0.623494 -0.642776
C131  C     C_3   0.777546 0.129760 0.718442 0.130316
H127  H     H_    0.727055 0.140892 0.734973 0.092438
H128  H     H_    0.805908 0.161635 0.764502 0.140491
C132  C     C_3   0.792429 0.059784 0.745255 -0.376169
H129  H     H_    0.777153 0.050885 0.819445 0.169774
H130  H     H_    0.765552 0.026597 0.699371 0.210310
C133  C     C_3   0.863185 0.044810 0.736641 -0.807234
H131  H     H_    0.879200 0.050560 0.662221 0.278175
H132  H     H_    0.872026 0.994375 0.759443 0.227152
H133  H     H_    0.891234 0.077216 0.782292 0.244251
O36   O     O_3   0.347967 0.712699 0.361870 -0.624485
C134  C     C_3   0.379328 0.656181 0.393219 0.066547
H134  H     H_    0.359726 0.615365 0.352650 0.172022
H135  H     H_    0.371016 0.644424 0.469297 0.161613
C135  C     C_3   0.450697 0.660953 0.373540 -0.361397
H136  H     H_    0.458600 0.672801 0.297677 0.238805
H137  H     H_    0.471485 0.699943 0.416639 0.215528
C136  C     C_3   0.484417 0.597926 0.397521 -0.962200
H138  H     H_    0.477310 0.585235 0.473228 0.271820
H139  H     H_    0.536043 0.603115 0.383635 0.264052
H140  H     H_    0.465882 0.558470 0.353215 0.265395
O37   O     O_3   0.796544 0.859254 0.376874 -0.642571
C137  C     C_3   0.779536 0.874636 0.282523 0.128933
H141  H     H_    0.729202 0.863899 0.264889 0.090618
H142  H     H_    0.808269 0.843933 0.235009 0.141334
C138  C     C_3   0.794629 0.945184 0.259718 -0.375391
H143  H     H_    0.779636 0.956084 0.186039 0.168116
H144  H     H_    0.767665 0.977238 0.307458 0.211556
C139  C     C_3   0.865390 0.959612 0.269228 -0.806746
H145  H     H_    0.881069 0.952192 0.343423 0.277390
H146  H     H_    0.874463 0.010437 0.248734 0.227340
H147  H     H_    0.893562 0.928088 0.222164 0.244280
O38   O     O_3   0.347809 0.287270 0.639422 -0.625656
C140  C     C_3   0.377813 0.344810 0.609188 0.065693
H148  H     H_    0.357336 0.384717 0.650967 0.171636
H149  H     H_    0.369209 0.357266 0.533491 0.161905
C141  C     C_3   0.449292 0.341390 0.628049 -0.361318
H150  H     H_    0.457599 0.328866 0.703544 0.237274
H151  H     H_    0.470894 0.303360 0.583774 0.216018
C142  C     C_3   0.481431 0.405446 0.605294 -0.962859
H152  H     H_    0.473892 0.418846 0.529973 0.271472
H153  H     H_    0.533185 0.401343 0.618510 0.263895
H154  H     H_    0.462002 0.443931 0.650782 0.265159
O39   O     O_3   0.242656 0.211800 0.357734 -0.638882
C143  C     C_3   0.260332 0.198315 0.263402 0.125192
H155  H     H_    0.312272 0.191978 0.252471 0.089767
H156  H     H_    0.246717 0.240088 0.218348 0.135691
C144  C     C_3   0.224827 0.138958 0.228575 -0.377851
H157  H     H_    0.241058 0.127785 0.155860 0.169099
H158  H     H_    0.235875 0.096930 0.274697 0.209191
C145  C     C_3   0.153070 0.149625 0.227355 -0.794821
H159  H     H_    0.135198 0.159206 0.299721 0.279358
H160  H     H_    0.129178 0.105917 0.200642 0.229772
H161  H     H_    0.140837 0.190838 0.180256 0.243674
O40   O     O_3   0.705828 0.738547 0.637915 -0.628375
C146  C     C_3   0.680618 0.680372 0.602937 0.076606
H162  H     H_    0.713856 0.641146 0.623333 0.170244
H163  H     H_    0.676350 0.678877 0.524335 0.149713
C147  C     C_3   0.615765 0.666905 0.647822 -0.357955
H164  H     H_    0.619325 0.670725 0.725881 0.234673
H165  H     H_    0.580905 0.703095 0.622059 0.213317
C148  C     C_3   0.591975 0.599894 0.623118 -0.959226
H166  H     H_    0.589776 0.594321 0.545316 0.270375
H167  H     H_    0.543695 0.592571 0.652925 0.267487
H168  H     H_    0.624105 0.562626 0.653171 0.263282
H169  H     H_    0.823824 0.388163 0.625466 0.160246
H170  H     H_    0.110450 0.680863 0.376587 0.165323
H171  H     H_    0.185538 0.575108 0.613556 0.157503
H172  H     H_    0.916111 0.316373 0.376599 0.173136
H173  H     H_    0.186002 0.426205 0.387096 0.157677
H174  H     H_    0.915475 0.683243 0.624606 0.172660
H175  H     H_    0.825710 0.613746 0.372888 0.161300
H176  H     H_    0.110643 0.318715 0.622447 0.161154
H177  H     H_    0.323780 0.888169 0.625396 0.160201
H178  H     H_    0.610393 0.180863 0.376586 0.165345
H179  H     H_    0.685540 0.075133 0.613529 0.157468
H180  H     H_    0.416196 0.816324 0.376677 0.173154
H181  H     H_    0.685947 0.926135 0.386976 0.157691
H182  H     H_    0.415428 0.183205 0.624675 0.172669
H183  H     H_    0.325758 0.113795 0.372829 0.161325
H184  H     H_    0.610716 0.818810 0.622573 0.161158
H185  H     H_    0.952606 0.410659 0.245021 0.171364
H186  H     H_    0.962284 0.593925 0.756057 0.165925
H187  H     H_    0.049088 0.588445 0.241703 0.168452
H188  H     H_    0.037774 0.406195 0.756210 0.158487
H189  H     H_    0.452500 0.910716 0.245014 0.171426
H190  H     H_    0.462381 0.093965 0.756050 0.165891
H191  H     H_    0.549185 0.088389 0.241702 0.168494
H192  H     H_    0.537679 0.906156 0.756213 0.158449

loop_
_geom_bond_atom_site_label_1
_geom_bond_atom_site_label_2
_ccdc_geom_bond_type
C137  H142  S    
C92   H36   S    
C3    O5    A    
C33   C45   A    
C110  H78   S    
C53   C69   A    
O21   C89   S    
C110  C111  S    
C132  H130  S    
C4    O7    A    
C140  H148  S    
C126  C127  S    
C96   H46   S    
O9    Zn3   S    
C127  H117  S    
C94   H41   S    
C141  C142  S    
C54   O22   S    
C137  C138  S    
C18   O34   S    
C22   C38   A    
O16   Zn3   S    
C124  H112  S    
C51   O19   S    
O30   C116  S    
C147  C148  S    
C144  H157  S    
C99   H52   S    
C17   C61   A    
C56   C72   A    
C106  H70   S    
O8    Zn1   S    
C58   C61   S    
C116  H92   S    
O2    Zn2   S    
C2    O3    A    
C53   C75   A    
C113  H86   S    
C9    O25   S    
C117  H95   S    
C5    O9    A    
C36   H180  S    
C148  H168  S    
C65   N1    A    
C71   H191  S    
C93   C94   S    
C118  H96   S    
C88   H28   S    
C25   C41   A    
C103  H61   S    
C135  H136  S    
C113  C114  S    
C136  H140  S    
C75   C76   S    
C33   H177  S    
C112  H82   S    
C35   H179  S    
C132  H129  S    
C54   C70   A    
C11   C27   A    
C133  H131  S    
C97   H49   S    
C87   H25   S    
C83   C84   S    
C14   O30   S    
C23   C64   A    
C24   C63   A    
C123  H109  S    
C39   H183  S    
C131  H127  S    
C89   H29   S    
C140  C141  S    
C86   H23   S    
C127  H119  S    
C141  H150  S    
C120  H102  S    
C87   C88   S    
C26   H170  S    
C79   H7    S    
C129  H123  S    
C85   H19   S    
C19   C35   A    
C143  H155  S    
C81   H11   S    
C145  H159  S    
C107  H71   S    
C102  H59   S    
C116  C117  S    
C1    O1    A    
C55   C71   A    
C80   H9    S    
C119  C120  S    
C101  H57   S    
C67   H187  S    
C52   O20   S    
C15   C60   A    
C67   N1    A    
C71   N3    A    
O24   C98   S    
O19   C83   S    
C130  H125  S    
C56   O24   S    
C79   H5    S    
C1    O4    A    
C78   H4    S    
C38   H182  S    
C10   C58   A    
C112  H84   S    
C52   C74   A    
C90   H32   S    
C122  C123  S    
C100  H55   S    
C4    O6    A    
C30   H174  S    
C20   C61   A    
C138  H144  S    
O6    Zn1   S    
C97   H47   S    
C21   O37   S    
C1    C43   S    
C95   C96   S    
C2    C44   S    
C119  H100  S    
C34   C46   A    
C37   C47   A    
C11   C58   A    
O29   C113  S    
C38   C48   A    
C131  C132  S    
C55   C75   A    
O33   C125  S    
C104  H65   S    
C138  H143  S    
C8    O15   A    
C103  H63   S    
C115  H90   S    
C82   H13   S    
C36   C45   A    
O38   C140  S    
C108  C109  S    
C18   C62   A    
C118  H98   S    
C6    O10   A    
C28   H172  S    
C93   H39   S    
C84   H18   S    
C50   C66   A    
C109  H76   S    
C107  C108  S    
C102  C103  S    
N2    Zn1   S    
C128  H120  S    
C51   C67   A    
C147  H165  S    
C12   O28   S    
C24   O40   S    
C12   C57   A    
C146  H163  S    
O37   C137  S    
C134  H135  S    
N4    Zn3   S    
C69   N3    A    
C26   C42   A    
C109  H77   S    
C83   H16   S    
C3    O8    A    
C91   H34   S    
C139  H145  S    
C122  H106  S    
C110  H79   S    
C15   C31   A    
C121  H103  S    
C13   C59   A    
C126  H116  S    
C14   C60   A    
C68   H188  S    
O7    Zn2   S    
C127  H118  S    
C72   N4    A    
C23   O39   S    
C144  C145  S    
C27   C42   A    
C4    C42   S    
C115  H89   S    
C124  H111  S    
C32   C43   A    
C79   H6    S    
C77   H1    S    
C99   H53   S    
C142  H154  S    
C105  H66   S    
C111  H80   S    
C114  C115  S    
C106  H69   S    
C125  H113  S    
O11   Zn3   S    
C17   O33   S    
O31   C119  S    
C65   H185  S    
O17   C77   S    
C86   C87   S    
C73   C74   S    
C55   O23   S    
C96   H45   S    
C121  H105  S    
C9    C25   A    
C86   H22   S    
C7    O16   A    
C148  H167  S    
C12   C28   A    
C13   C29   A    
C88   H27   S    
C49   O17   S    
C135  H137  S    
C28   C41   A    
C128  C129  S    
C77   C78   S    
C136  H139  S    
C101  C102  S    
C125  C126  S    
C133  H132  S    
C98   C99   S    
C135  C136  S    
C95   H44   S    
C137  H141  S    
C92   H37   S    
C29   C43   A    
C123  C124  S    
C30   C44   A    
C17   C33   A    
C139  H147  S    
C7    O13   A    
C131  H128  S    
C132  C133  S    
C89   H30   S    
C140  H149  S    
C68   N2    A    
C66   N2    A    
C96   C97   S    
C133  H133  S    
C70   N4    A    
C106  H68   S    
C95   H43   S    
N3    Zn4   S    
C94   H42   S    
C8    O14   A    
C69   H189  S    
C130  H124  S    
O15   Zn4   S    
C15   O31   S    
C145  H161  S    
C115  H91   S    
C34   H178  S    
C85   H20   S    
O35   C131  S    
C89   C90   S    
C142  H152  S    
C91   H35   S    
C53   O21   S    
C145  H160  S    
O20   C86   S    
C6    C48   S    
C141  H151  S    
C107  H72   S    
C116  H93   S    
C2    O2    A    
C85   H21   S    
C16   C32   A    
C113  H85   S    
C84   H17   S    
O23   C95   S    
C117  H94   S    
C80   H8    S    
O36   C134  S    
O22   C92   S    
C101  H58   S    
C10   O26   S    
C82   H12   S    
C78   H3    S    
C25   H169  S    
C50   C74   A    
C27   H171  S    
C112  H83   S    
C90   H31   S    
C93   H38   S    
C122  H107  S    
C100  H54   S    
C72   H192  S    
C105  C106  S    
O25   C101  S    
C97   H48   S    
C21   C63   A    
C87   H24   S    
C22   C64   A    
C98   H50   S    
C20   C36   A    
C21   C37   A    
C20   O36   S    
O3    Zn1   S    
C123  H108  S    
C128  H121  S    
C35   C46   A    
C99   C100  S    
C16   O32   S    
C39   C48   A    
C40   C47   A    
O39   C143  S    
C56   C76   A    
C104  H64   S    
C94   H40   S    
C108  H73   S    
C120  C121  S    
C57   C62   S    
C32   H176  S    
C5    C47   S    
C59   C64   S    
C49   C65   A    
C136  H138  S    
C60   C63   S    
C37   H181  S    
C7    C45   S    
C129  H122  S    
C13   O29   S    
C108  H74   S    
C118  H97   S    
C19   C62   A    
C6    O11   A    
C81   H10   S    
C29   H173  S    
O5    Zn2   S    
C11   O27   S    
C146  H162  S    
O26   C104  S    
C102  H60   S    
C143  C144  S    
C9    C57   A    
C52   C68   A    
C117  C118  S    
C80   C81   S    
C10   C26   A    
O28   C110  S    
C14   C30   A    
O10   Zn4   S    
O18   C80   S    
C130  H126  S    
C8    C46   S    
C78   C79   S    
C31   C44   A    
C139  H146  S    
C90   C91   S    
C100  H56   S    
C121  H104  S    
C134  H134  S    
C126  H115  S    
C16   C59   A    
C138  C139  S    
O27   C107  S    
C144  H158  S    
O13   Zn4   S    
C22   O38   S    
C119  H99   S    
C50   O18   S    
C124  H110  S    
N1    Zn2   S    
C91   H33   S    
C77   H2    S    
C18   C34   A    
C54   C76   A    
C142  H153  S    
C105  H67   S    
O40   C146  S    
C111  H81   S    
C114  H88   S    
C104  C105  S    
C125  H114  S    
C120  H101  S    
C70   H190  S    
O12   Zn4   S    
C82   H14   S    
C3    C41   S    
C103  H62   S    
C129  C130  S    
C51   C73   A    
C92   C93   S    
C111  C112  S    
C148  H166  S    
C81   C82   S    
O4    Zn2   S    
O34   C128  S    
C84   C85   S    
C88   H26   S    
C109  H75   S    
O1    Zn1   S    
O14   Zn3   S    
C23   C39   A    
C31   H175  S    
C24   C40   A    
C19   O35   S    
C49   C73   A    
C147  H164  S    
C40   H184  S    
C5    O12   A    
O32   C122  S    
C146  C147  S    
C143  H156  S    
C134  C135  S    
C114  H87   S    
C66   H186  S    
C83   H15   S    
C98   H51   S    
