data_mof_unit_pretest_389.cif
_audit_creation_date              2012-12-10T17:19:25-0500
_audit_creation_method            fapswitch 2.2
_symmetry_space_group_name_H-M    P1
_symmetry_Int_Tables_number       1
_space_group_crystal_system       triclinic
_cell_length_a                    15.060391
_cell_length_b                    10.883523
_cell_length_c                    9.588954
_cell_angle_alpha                 91.531349
_cell_angle_beta                  90.189471
_cell_angle_gamma                 92.424799
_cell_volume                      1569.74288753

loop_
_atom_site_label
_atom_site_type_symbol
_atom_type_description
_atom_site_fract_x
_atom_site_fract_y
_atom_site_fract_z
_atom_type_partial_charge
C1    C     C_R   0.507014 0.262949 0.497846 0.872806
C2    C     C_R   0.909780 0.591736 0.566568 0.038659
C3    C     C_R   0.948810 0.308418 0.350578 -0.204096
C4    C     C_R   0.040609 0.307601 0.352329 -0.144433
C5    C     C_R   0.091137 0.400361 0.423678 0.097862
C6    C     C_R   0.047247 0.497111 0.493907 0.040001
C7    C     C_R   0.096993 0.592124 0.566188 -0.005096
C8    C     C_R   0.053210 0.689082 0.635052 -0.053673
C9    C     C_R   0.959541 0.689904 0.632924 0.146400
C10   C     C_R   0.184431 0.398041 0.427152 0.072892
C11   C     C_R   0.232747 0.493215 0.498478 -0.077329
C12   C     C_R   0.329117 0.497206 0.499682 0.842402
C13   C     C_R   0.189880 0.587311 0.568512 -0.252721
C14   C     C_R   0.585164 0.131669 0.730592 -0.114119
C15   C     C_R   0.589274 0.079119 0.860895 -0.114413
C16   C     C_R   0.546296 0.965888 0.882110 -0.146271
C17   C     C_R   0.508695 0.898733 0.769208 -0.175064
C18   C     C_R   0.513505 0.944672 0.632271 0.088715
C19   C     C_R   0.539278 0.069722 0.618463 0.069734
C20   C     C_R   0.518590 0.129096 0.493487 -0.077823
C21   C     C_R   0.497093 0.056980 0.371650 0.023931
C22   C     C_R   0.485913 0.930654 0.381314 -0.287593
C23   C     C_R   0.496292 0.737793 0.502749 0.785635
C24   C     C_R   0.494333 0.872687 0.508738 -0.109580
C25   C     C_R   0.620113 0.661023 0.149053 -0.150840
C26   C     C_R   0.679228 0.738459 0.079073 -0.201983
C27   C     C_R   0.679028 0.738026 0.935479 -0.181362
C28   C     C_R   0.619658 0.660457 0.860902 -0.156899
C29   C     C_R   0.558953 0.578878 0.927725 0.189641
C30   C     C_R   0.559019 0.578980 0.077352 0.205419
C31   C     C_R   0.444306 0.424334 0.071286 0.003561
C32   C     C_R   0.444312 0.424355 0.923361 -0.048097
C33   C     C_R   0.670939 0.498396 0.499968 0.831471
C34   C     C_R   0.816760 0.586111 0.570761 -0.234803
C35   C     C_R   0.767501 0.493204 0.498949 -0.085584
C36   C     C_R   0.810105 0.401347 0.421126 -0.065928
C37   C     C_R   0.903743 0.402249 0.420247 0.055248
C38   C     C_R   0.953575 0.497263 0.493544 0.042532
Cu1   Cu    Cu3+1 0.499990 0.499990 0.640660 0.940813
Cu2   Cu    Cu3+1 0.500010 0.500010 0.359340 0.988958
H1    H     H_    0.780738 0.654666 0.628069 0.161646
H2    H     H_    0.619175 0.220219 0.717985 0.173959
H3    H     H_    0.623591 0.128100 0.946070 0.188168
H4    H     H_    0.543918 0.928470 0.985577 0.152303
H5    H     H_    0.473430 0.813964 0.793504 0.174934
H6    H     H_    0.471916 0.876677 0.286383 0.163018
H7    H     H_    0.398804 0.362149 0.124336 0.162741
H8    H     H_    0.625409 0.670448 0.259108 0.200507
H9    H     H_    0.724893 0.800310 0.137010 0.174967
H10   H     H_    0.723681 0.800538 0.881264 0.192676
H11   H     H_    0.622906 0.670569 0.751335 0.202706
H12   H     H_    0.398688 0.362254 0.865975 0.154074
H13   H     H_    0.913896 0.233036 0.295286 0.146757
H14   H     H_    0.070836 0.232772 0.296667 0.189076
H15   H     H_    0.230662 0.657081 0.623797 0.134602
N1    N     N_R   0.500860 0.501210 0.147910 -0.198745
N2    N     N_R   0.500890 0.501290 0.852040 -0.210052
O1    O     O_R   0.499990 0.319640 0.618810 -0.603934
O2    O     O_R   0.500000 0.319660 0.381240 -0.515608
O3    O     O_R   0.370250 0.499960 0.618800 -0.579817
O4    O     O_R   0.370260 0.499980 0.381230 -0.565786
O5    O     O_R   0.500000 0.680340 0.618760 -0.622980
O6    O     O_R   0.500010 0.680360 0.381190 -0.605900
O7    O     O_R   0.629740 0.500020 0.618770 -0.602887
O8    O     O_R   0.629750 0.500040 0.381200 -0.587754
C39   C     C_2   0.757158 0.303110 0.343985 0.404070
H16   H     H_    0.772675 0.279808 0.236332 0.077247
O9    O     O_2   0.697615 0.245042 0.401843 -0.542970
I1    I     I_    0.253983 0.246719 0.337080 -0.439819
C40   C     C_2   0.105469 0.790932 0.707040 0.433337
H17   H     H_    0.160503 0.837094 0.654175 0.057665
O10   O     O_2   0.089304 0.821273 0.827489 -0.491331
I2    I     I_    0.894872 0.848840 0.714820 -0.349178
C41   C     C_2   0.490019 0.105865 0.229599 0.386091
H18   H     H_    0.435800 0.073430 0.161434 0.064888
O11   O     O_2   0.548266 0.174691 0.183674 -0.527639

loop_
_geom_bond_atom_site_label_1
_geom_bond_atom_site_label_2
_ccdc_geom_bond_type
C39   O9    D    
C3    H13   S    
C35   C36   A    
C33   O8    A    
C7    C8    A    
Cu1   O7    S    
C26   C27   A    
C29   C30   A    
Cu2   O6    S    
C41   O11   D    
C18   C24   A    
C36   C37   A    
C17   H5    S    
C34   C35   A    
C1    O2    A    
C5    C6    A    
C28   H11   S    
C36   C39   S    
C15   C16   A    
Cu1   N2    S    
C18   C19   A    
C32   H12   S    
C23   O5    A    
C19   C20   A    
C8    C9    A    
Cu2   N1    S    
C23   C24   S    
C6    C38   A    
C40   H17   S    
C31   N1    A    
C16   H4    S    
C27   H10   S    
C14   H2    S    
C2    C34   A    
C23   O6    A    
C39   H16   S    
Cu2   O2    S    
C31   H7    S    
C21   C22   A    
C34   H1    S    
C9    I2    S    
C32   N2    A    
C41   H18   S    
C26   H9    S    
Cu1   Cu2   S    
C16   C17   A    
C25   C26   A    
Cu1   O1    S    
C30   N1    A    
C21   C41   S    
Cu2   O4    S    
C37   C38   A    
C2    C38   A    
C31   C32   A    
C17   C18   A    
C25   H8    S    
C22   H6    S    
C29   N2    A    
Cu2   O8    S    
C22   C24   A    
C3    C4    A    
C25   C30   A    
Cu1   O5    S    
C28   C29   A    
C1    C20   S    
C4    H14   S    
C14   C19   A    
C4    C5    A    
C11   C12   S    
C6    C7    A    
C8    C40   S    
C15   H3    S    
C5    C10   A    
C1    O1    A    
C12   O4    A    
C11   C13   A    
C33   O7    A    
Cu1   O3    S    
C33   C35   S    
C10   C11   A    
C12   O3    A    
C10   I1    S    
C7    C13   A    
C20   C21   A    
C3    C37   A    
C27   C28   A    
C14   C15   A    
C40   O10   D    
C2    C9    A    
C13   H15   S    
