data_mof_unit_pretest_94.cif
_audit_creation_date              2013-03-05T15:43:18-0500
_audit_creation_method            fapswitch 2.2
_symmetry_space_group_name_H-M    P1
_symmetry_Int_Tables_number       1
_space_group_crystal_system       triclinic
_cell_length_a                    10.636272
_cell_length_b                    10.73764
_cell_length_c                    10.062238
_cell_angle_alpha                 90.607433
_cell_angle_beta                  90.362557
_cell_angle_gamma                 90.570862
_cell_volume                      1149.04730021

loop_
_atom_site_label
_atom_site_type_symbol
_atom_site_description
_atom_site_fract_x
_atom_site_fract_y
_atom_site_fract_z
_atom_type_partial_charge
O1    O     O_R   0.499980 0.319060 0.613040 -0.609704
O2    O     O_R   0.500020 0.319100 0.386900 -0.549035
C1    C     C_R   0.498818 0.262557 0.498712 1.044335
O3    O     O_R   0.316750 0.499980 0.613090 -0.612519
O4    O     O_R   0.316790 0.500020 0.386950 -0.607220
C2    C     C_R   0.260770 0.500193 0.499530 0.936349
Zn1   Zn    Zn3+2 0.499970 0.499970 0.650990 1.040302
Zn2   Zn    Zn3+2 0.500030 0.500030 0.349010 1.049808
O5    O     O_R   0.499980 0.680900 0.613100 -0.561821
O6    O     O_R   0.500020 0.680940 0.386960 -0.601414
O7    O     O_R   0.683210 0.499980 0.613050 -0.593763
O8    O     O_R   0.683250 0.500020 0.386910 -0.564366
C3    C     C_R   0.496355 0.737199 0.500721 0.926174
C4    C     C_R   0.739082 0.500124 0.500540 0.938857
C5    C     C_R   0.132642 0.732668 0.481732 -0.167517
H1    H     H_    0.234039 0.736457 0.478936 0.126384
C6    C     C_R   0.068219 0.845005 0.476286 -0.115450
H2    H     H_    0.119861 0.932108 0.469898 0.188678
C7    C     C_R   0.937477 0.845106 0.479440 -0.056037
H3    H     H_    0.887352 0.932199 0.475486 0.206395
C8    C     C_R   0.870977 0.732949 0.487969 -0.088035
H4    H     H_    0.769475 0.737066 0.490547 0.138061
C9    C     C_R   0.935125 0.618152 0.493680 0.055693
C10   C     C_R   0.066538 0.617990 0.490774 0.054384
C11   C     C_R   0.128227 0.502754 0.497979 -0.258978
C12   C     C_R   0.063614 0.388839 0.508090 0.225249
C13   C     C_R   0.933641 0.389010 0.510230 0.222746
C14   C     C_R   0.871402 0.503055 0.502557 -0.255523
C15   C     C_2   0.479206 0.930735 0.388954 -0.296311
C16   C     C_2   0.475729 0.867764 0.502248 -0.401195
H5    H     H_    0.497309 0.884492 0.294887 0.235713
H6    H     H_    0.451122 0.910668 0.596637 0.184985
C17   C     C_2   0.459887 0.064596 0.388159 0.585924
C18   C     C_2   0.502330 0.130104 0.494380 -0.332400
H7    H     H_    0.545414 0.086812 0.580072 0.140181
C19   C     C_2   0.485617 0.597386 0.928215 0.457258
N1    N     N_2   0.501340 0.501330 0.852150 -0.230524
H8    H     H_    0.539161 0.423989 0.896395 0.133901
C20   C     C_2   0.526993 0.595818 0.072470 0.177147
N2    N     N_2   0.501380 0.501360 0.147810 -0.241665
H9    H     H_    0.447971 0.431415 0.104043 0.143331
N3    N     N_R   0.130072 0.273399 0.517853 0.213638
O9    O     O_R   0.105587 0.196552 0.613624 -0.361478
O10   O     O_R   0.207521 0.240381 0.424848 -0.401898
O11   O     O_3   0.447640 0.707512 0.871286 -0.528853
C21   C     C_3   0.329673 0.739676 0.923794 -0.235762
H10   H     H_    0.335731 0.760303 0.032259 0.145515
H11   H     H_    0.258264 0.665189 0.903497 0.153192
H12   H     H_    0.297054 0.825373 0.874128 0.193894
N4    N     N_R   0.599414 0.699703 0.123924 0.230686
O12   O     O_R   0.594010 0.807548 0.066547 -0.373391
O13   O     O_R   0.690498 0.680409 0.207612 -0.354227
N5    N     N_R   0.864726 0.273287 0.514570 0.218409
O14   O     O_R   0.788939 0.250601 0.612523 -0.388553
O15   O     O_R   0.883894 0.187247 0.425180 -0.368407
O16   O     O_3   0.412904 0.125426 0.276398 -0.558836
C22   C     C_3   0.324881 0.051435 0.204585 -0.169981
H13   H     H_    0.256658 0.003903 0.271063 0.156244
H14   H     H_    0.373643 0.983031 0.139963 0.158527
H15   H     H_    0.270072 0.113041 0.138600 0.202904

loop_
_geom_bond_atom_site_label_1
_geom_bond_atom_site_label_2
_geom_bond_distance
_ccdc_geom_bond_type
O4    Zn2   1.988396 S    
N4    O13   1.299222 A    
C9    C10   1.398253 A    
C13   N5    1.437579 S    
C5    C6    1.394601 A    
N1    H8    1.030498 S    
Zn1   O7    1.988397 S    
C7    H3    1.082046 S    
Zn2   O8    1.983373 S    
C4    C14   1.407441 S    
C17   O16   1.398562 S    
C8    C9    1.416337 A    
C6    H2    1.082627 S    
Zn1   N1    2.023976 S    
O11   C21   1.409226 S    
C19   O11   1.382222 S    
C15   H5    1.083414 S    
C5    C10   1.415919 A    
N5    O14   1.300702 A    
C10   C11   1.408665 A    
C16   H6    1.085841 S    
C21   H12   1.109398 S    
C22   H13   1.113773 S    
C15   C16   1.332107 D    
N3    O10   1.299474 A    
O3    Zn1   1.983372 S    
C8    H4    1.081411 S    
N2    H9    1.030554 S    
C7    C8    1.394269 A    
O8    C4    1.285040 A    
N4    O12   1.301031 A    
O2    C1    1.284172 A    
N5    O15   1.300997 A    
C12   C13   1.382744 A    
O4    C2    1.283278 A    
O7    C4    1.281933 A    
C21   H11   1.113893 S    
C22   H14   1.110419 S    
C2    C11   1.410299 S    
C9    C14   1.407527 A    
N3    O9    1.301197 A    
C5    H1    1.079408 S    
C15   C17   1.454091 S    
C3    C16   1.421116 S    
C20   N2    1.300401 D    
C20   N4    1.439185 S    
C17   C18   1.346322 D    
O16   C22   1.412211 S    
C12   N3    1.436999 S    
O3    C2    1.285182 A    
C18   H7    1.085037 S    
C13   C14   1.400463 A    
Zn1   O5    1.983779 S    
O5    C3    1.288415 A    
C21   H10   1.112681 S    
C19   N1    1.290702 D    
C22   H15   1.109223 S    
Zn2   N2    2.024864 S    
C1    C18   1.423303 S    
C6    C7    1.391183 A    
C11   C12   1.401991 A    
O1    Zn1   1.975749 S    
C19   C20   1.514430 S    
Zn2   O6    1.975749 S    
O2    Zn2   1.983779 S    
O1    C1    1.294812 A    
O6    C3    1.289626 A    
