data_mof_unit_pretest_1763.cif
_audit_creation_date              2012-12-10T16:57:18-0500
_audit_creation_method            fapswitch 2.2
_symmetry_space_group_name_H-M    P1
_symmetry_Int_Tables_number       1
_space_group_crystal_system       triclinic
_cell_length_a                    21.781019
_cell_length_b                    21.743147
_cell_length_c                    22.272111
_cell_angle_alpha                 59.936425
_cell_angle_beta                  119.099109
_cell_angle_gamma                 89.876259
_cell_volume                      7543.50453792

loop_
_atom_site_label
_atom_site_type_symbol
_atom_type_description
_atom_site_fract_x
_atom_site_fract_y
_atom_site_fract_z
_atom_type_partial_charge
C1    C     C_R   0.617887 0.501513 0.497715 0.869326
C2    C     C_2   0.817704 0.481280 0.502187 -0.231955
C3    C     C_2   0.684796 0.503644 0.435163 -0.100344
C4    C     C_R   0.418394 0.581885 0.337317 0.936666
C5    C     C_2   0.681903 0.507064 0.493056 0.339666
C6    C     C_3   0.712865 0.208408 0.030005 -0.306283
C7    C     C_3   0.687422 0.295310 0.971413 -0.051197
C8    C     C_1   0.625668 0.372739 0.751332 -0.089590
C9    C     C_1   0.874494 0.125650 0.248649 -0.167486
C10   C     C_3   0.734620 0.203999 0.975335 0.026575
C11   C     C_3   0.708581 0.290231 0.917042 0.139716
C12   C     C_3   0.289381 0.710527 0.082690 -0.025462
C13   C     C_3   0.814129 0.202731 0.029799 -0.306382
C14   C     C_3   0.791694 0.208786 0.083007 0.164587
C15   C     C_3   0.787255 0.289711 0.971214 -0.054441
C16   C     C_R   0.381361 0.499085 0.501107 0.849008
C17   C     C_3   0.766128 0.294931 0.025629 -0.071142
C18   C     C_1   0.663119 0.335088 0.826208 0.152102
C19   C     C_1   0.837072 0.163200 0.173744 0.031412
C20   C     C_2   0.250030 0.491003 0.566645 -0.263791
C21   C     C_2   0.180327 0.530372 0.497158 -0.130583
C22   C     C_2   0.315340 0.500174 0.562217 0.488352
C23   C     C_3   0.190966 0.726220 0.974123 -0.076478
C24   C     C_2   0.316885 0.494267 0.505414 0.310965
C25   C     C_R   0.004046 0.877008 0.507323 0.832837
C26   C     C_R   0.081243 0.918667 0.662619 0.889677
C27   C     C_R   0.999600 0.119008 0.500050 0.764679
C28   C     C_R   0.581303 0.418164 0.662608 0.897249
C29   C     C_R   0.918773 0.081232 0.337424 0.920430
C30   C     C_R   0.992999 0.619544 0.498684 0.909638
C31   C     C_R   0.881350 0.495508 0.500302 0.967114
C32   C     C_R   0.006453 0.380802 0.500973 0.813349
C33   C     C_R   0.118553 0.506600 0.499529 0.852622
C34   C     C_3   0.207584 0.791073 0.917259 -0.022738
C35   C     C_2   0.975932 0.690498 0.551576 -0.068425
C36   C     C_2   0.976877 0.688682 0.491871 0.376150
C37   C     C_2   0.973935 0.760826 0.546177 -0.244620
C38   C     C_2   0.019084 0.799588 0.531869 -0.111856
C39   C     C_2   0.995430 0.315147 0.436304 -0.247419
C40   C     C_3   0.290924 0.743504 0.972954 -0.454046
C41   C     C_2   0.027584 0.314643 0.505529 0.440795
C42   C     C_2   0.004709 0.244373 0.444198 -0.217796
C43   C     C_2   0.995787 0.186229 0.498554 0.438766
C44   C     C_3   0.305496 0.775209 0.025489 0.472368
C45   C     C_3   0.206284 0.757589 0.027265 -0.470078
C46   C     C_1   0.373462 0.627444 0.248447 -0.136771
C47   C     C_1   0.125492 0.874262 0.751466 -0.160255
C48   C     C_3   0.273507 0.679368 0.030107 0.519095
C49   C     C_3   0.374212 0.850689 0.994441 -0.273244
C50   C     C_3   0.759482 0.488249 0.621771 -0.251766
C51   C     C_2   0.617444 0.345627 0.941736 0.382941
C52   C     C_2   0.782711 0.347751 0.051579 0.358679
C53   C     C_2   0.830951 0.333656 0.941317 0.384654
C54   C     C_2   0.718382 0.150779 0.950082 0.402246
C55   C     C_2   0.162040 0.601460 0.418072 0.427043
C56   C     C_3   0.223317 0.822173 0.970143 0.522004
C57   C     C_3   0.361042 0.529597 0.660161 -0.179955
C58   C     C_3   0.242501 0.507426 0.378995 -0.326761
C59   C     C_2   0.970826 0.628383 0.618521 0.369190
C60   C     C_3   0.886406 0.790077 0.360956 -0.300619
C61   C     C_2   0.088788 0.764684 0.546830 0.491829
C62   C     C_3   0.151629 0.252315 0.597997 -0.309247
C63   C     C_3   0.001372 0.133416 0.621585 -0.182523
C64   C     C_3   0.208804 0.911117 0.993734 -0.283320
C65   C     C_2   0.127676 0.697048 0.947273 0.440447
C66   C     C_3   0.293108 0.590095 0.008644 -0.265418
C67   C     C_1   0.335450 0.665326 0.173494 0.090056
C68   C     C_2   0.623789 0.498273 0.369069 0.356599
C69   C     C_1   0.162668 0.836714 0.826412 0.109175
C70   C     C_2   0.749977 0.511342 0.431716 -0.214680
H1    H     H_    0.682606 0.174500 0.054884 0.151369
H2    H     H_    0.827065 0.444054 0.563398 0.173381
H3    H     H_    0.322349 0.899446 0.941472 0.185604
H4    H     H_    0.391446 0.823567 0.971545 0.162368
H5    H     H_    0.418595 0.872675 0.020241 0.191674
H6    H     H_    0.773071 0.427059 0.648860 0.128566
H7    H     H_    0.719239 0.505452 0.631859 0.191375
H8    H     H_    0.811540 0.497459 0.656732 0.221207
H9    H     H_    0.609687 0.343286 0.987299 0.073183
H10   H     H_    0.760846 0.407822 0.003933 0.079540
H11   H     H_    0.886270 0.327775 0.986753 0.077844
H12   H     H_    0.866589 0.164190 0.054507 0.153037
H13   H     H_    0.740424 0.090781 0.998079 0.058135
H14   H     H_    0.109733 0.622042 0.359087 0.083803
H15   H     H_    0.353143 0.483098 0.706147 0.157459
H16   H     H_    0.311845 0.581376 0.615067 0.179689
H17   H     H_    0.409271 0.542591 0.695912 0.204940
H18   H     H_    0.282683 0.480091 0.375594 0.195761
H19   H     H_    0.235788 0.568404 0.348830 0.154853
H20   H     H_    0.187841 0.502988 0.342103 0.193920
H21   H     H_    0.986724 0.627257 0.673512 0.098872
H22   H     H_    0.859957 0.807900 0.384128 0.165815
H23   H     H_    0.260283 0.444467 0.625599 0.153396
H24   H     H_    0.859375 0.753320 0.343012 0.175879
H25   H     H_    0.876415 0.841409 0.303406 0.192552
H26   H     H_    0.112649 0.799883 0.514900 0.079053
H27   H     H_    0.163540 0.301911 0.598448 0.167005
H28   H     H_    0.156383 0.251924 0.550622 0.167377
H29   H     H_    0.194654 0.201160 0.660606 0.195442
H30   H     H_    0.062407 0.109783 0.654224 0.155600
H31   H     H_    0.974871 0.089431 0.623939 0.163947
H32   H     H_    0.993345 0.151035 0.656879 0.191651
H33   H     H_    0.268779 0.886984 0.045511 0.193187
H34   H     H_    0.324006 0.738495 0.949384 0.168428
H35   H     H_    0.175020 0.887713 0.019023 0.166145
H36   H     H_    0.191819 0.972465 0.964116 0.190723
H37   H     H_    0.123165 0.650301 0.994382 0.071240
H38   H     H_    0.333004 0.609302 0.991689 0.168803
H39   H     H_    0.235331 0.618163 0.951397 0.165393
H40   H     H_    0.306539 0.528944 0.036922 0.195176
H41   H     H_    0.636822 0.477581 0.339863 0.086831
H42   H     H_    0.929700 0.784291 0.545998 0.162225
H43   H     H_    0.958733 0.366714 0.374031 0.148406
H44   H     H_    0.014858 0.241354 0.402391 0.130394
H45   H     H_    0.172902 0.762170 0.050707 0.179344
H46   H     H_    0.741715 0.543075 0.370589 0.170074
O1    O     O_R   0.590490 0.448940 0.499990 -0.613061
O2    O     O_R   0.034710 0.555670 0.569560 -0.590072
O3    O     O_R   0.874770 0.534770 0.430450 -0.633838
O4    O     O_R   0.590420 0.551070 0.499980 -0.605497
O5    O     O_R   0.944330 0.465210 0.569580 -0.589006
O6    O     O_R   0.965290 0.444330 0.430440 -0.653073
O7    O     O_R   0.034850 0.374760 0.569570 -0.590483
O8    O     O_R   0.055670 0.534790 0.430420 -0.639793
O9    O     O_R   0.125230 0.465230 0.569550 -0.621241
O10   O     O_R   0.438430 0.510550 0.376780 -0.585867
O11   O     O_R   0.438360 0.612680 0.376770 -0.623593
O12   O     O_R   0.948920 0.909510 0.500030 -0.609213
O13   O     O_R   0.409580 0.448930 0.500020 -0.624503
O14   O     O_R   0.409510 0.551060 0.500010 -0.587106
O15   O     O_R   0.561640 0.387320 0.623230 -0.610246
O16   O     O_R   0.561570 0.489450 0.623220 -0.602569
O17   O     O_R   0.051050 0.909420 0.500010 -0.639647
O18   O     O_3   0.366628 0.798228 0.058962 -0.597019
O19   O     O_3   0.732656 0.532754 0.535739 -0.593376
O20   O     O_2   0.569194 0.389157 0.866946 -0.561430
O21   O     O_2   0.820509 0.323840 0.125665 -0.559304
O22   O     O_2   0.804946 0.375945 0.866482 -0.580397
O23   O     O_R   0.112670 0.938280 0.623210 -0.620195
O24   O     O_2   0.680646 0.174212 0.876141 -0.558156
O25   O     O_2   0.203456 0.639255 0.418392 -0.582763
O26   O     O_3   0.376997 0.507597 0.618153 -0.624540
O27   O     O_3   0.263819 0.469931 0.462857 -0.637046
O28   O     O_2   0.945316 0.580737 0.611326 -0.563639
O29   O     O_3   0.963829 0.754554 0.420603 -0.615354
O30   O     O_2   0.121705 0.697132 0.597185 -0.584953
O31   O     O_3   0.081320 0.250398 0.583719 -0.579987
O32   O     O_3   0.966933 0.196796 0.537862 -0.586302
O33   O     O_3   0.195268 0.899641 0.932114 -0.613021
O34   O     O_R   0.010540 0.938370 0.623230 -0.603861
O35   O     O_2   0.081275 0.725272 0.873012 -0.566281
O36   O     O_3   0.300724 0.601697 0.068383 -0.593628
O37   O     O_2   0.558879 0.520367 0.343162 -0.553243
O38   O     O_R   0.051080 0.090340 0.499970 -0.634723
O39   O     O_R   0.948950 0.090430 0.499990 -0.601038
O40   O     O_R   0.989460 0.061480 0.376770 -0.609056
O41   O     O_R   0.887330 0.061570 0.376790 -0.610443
O42   O     O_R   0.965150 0.625240 0.430430 -0.620815
Zn1   Zn    Zn3+2 0.500050 0.431810 0.500010 1.025235
Zn2   Zn    Zn3+2 0.499950 0.568190 0.499990 1.034176
Zn3   Zn    Zn3+2 0.068190 0.999870 0.499990 0.970164
Zn4   Zn    Zn3+2 0.931810 0.999990 0.500010 0.994576
Zn5   Zn    Zn3+2 0.953560 0.546450 0.407100 0.959297
Zn6   Zn    Zn3+2 0.046440 0.453550 0.592900 1.023927

loop_
_geom_bond_atom_site_label_1
_geom_bond_atom_site_label_2
_ccdc_geom_bond_type
C64   H33   S    
C20   H23   S    
C11   C18   S    
C34   C56   S    
C23   C45   S    
O1    Zn1   S    
O38   Zn3   S    
C3    C68   S    
C14   C17   S    
C63   H31   S    
C61   H26   S    
C64   H35   S    
C39   C41   D    
C4    C46   S    
O10   Zn1   S    
C7    C11   S    
O2    Zn6   S    
O16   Zn2   S    
C57   O26   S    
C1    C5    S    
C15   C53   S    
C35   C59   S    
C35   C37   S    
C25   O12   A    
C39   H43   S    
C50   O19   S    
C40   H34   S    
C24   O27   S    
C57   H16   S    
C30   O42   A    
O14   Zn2   S    
C44   C56   S    
C47   C69   T    
C37   H42   S    
C43   O32   S    
C49   O18   S    
C62   H28   S    
C11   C15   S    
C58   O27   S    
C9    C19   T    
C54   O24   D    
C35   C36   D    
C45   C56   S    
C7    C17   S    
C33   O8    A    
C32   C41   S    
C49   H5    S    
C16   O14   A    
C9    C29   S    
C38   C61   S    
C27   O38   A    
C16   C24   S    
C13   C14   S    
C27   O39   A    
C32   O7    A    
C37   C38   D    
C63   H32   S    
C2    H2    S    
C50   H8    S    
C17   C52   S    
C33   O9    A    
C54   H13   S    
C58   H19   S    
C42   H44   S    
C39   C42   S    
C60   H22   S    
O39   Zn4   S    
C44   O18   S    
C6    H1    S    
O34   Zn4   S    
C12   C67   S    
C53   O22   D    
C32   O6    A    
C26   O34   A    
C3    C70   S    
C31   O5    A    
C68   O37   D    
C10   C11   S    
O3    Zn5   S    
C21   C55   S    
C5    O19   S    
C29   O41   A    
C30   O2    A    
C70   H46   S    
O5    Zn6   S    
C13   H12   S    
C8    C18   T    
O6    Zn5   S    
C57   H17   S    
O17   Zn3   S    
C2    C31   S    
C28   O16   A    
C68   H41   S    
C65   O35   D    
C61   O30   D    
C66   O36   S    
C63   H30   S    
C50   H6    S    
C25   C38   S    
C6    C14   S    
C62   H27   S    
C51   O20   D    
C45   H45   S    
C41   O31   S    
O23   Zn3   S    
C23   C34   S    
C22   O26   S    
O12   Zn4   S    
C52   O21   D    
C1    O1    A    
C66   H40   S    
O15   Zn1   S    
C16   O13   A    
C58   H20   S    
C34   C69   S    
C31   O3    A    
C26   C47   S    
C29   O40   A    
O42   Zn5   S    
C20   C22   S    
O40   Zn3   S    
C26   O23   A    
C62   O31   S    
C13   C15   S    
C8    C28   S    
C49   H3    S    
O9    Zn6   S    
C42   C43   D    
C50   H7    S    
C63   O32   S    
O13   Zn1   S    
C25   O17   A    
C59   H21   S    
C40   C48   S    
C23   C48   S    
C4    O11   A    
C52   H10   S    
C14   C19   S    
C66   H38   S    
C12   C45   S    
C3    C5    D    
C10   C13   S    
C58   H18   S    
C59   O28   D    
C64   H36   S    
C6    C7    S    
C4    O10   A    
C1    O4    A    
C30   C36   S    
C64   O33   S    
C28   O15   A    
O8    Zn5   S    
C48   O36   S    
C56   O33   S    
C7    C51   S    
C46   C67   T    
C12   C44   S    
C2    C70   D    
O7    Zn6   S    
C23   C65   S    
C55   O25   D    
O41   Zn4   S    
C12   C48   S    
C57   H15   S    
C22   C24   D    
C66   H39   S    
C10   C54   S    
C53   H11   S    
C51   H9    S    
C6    C10   S    
C62   H29   S    
C60   H25   S    
C27   C43   S    
C36   O29   S    
C40   C44   S    
C21   C33   S    
C20   C21   D    
C60   O29   S    
O4    Zn2   S    
C49   H4    S    
C34   C40   S    
C55   H14   S    
C15   C17   S    
O11   Zn2   S    
C65   H37   S    
C60   H24   S    
