data_mof_unit_pretest_829.cif
_audit_creation_date              2012-10-26T19:16:00-0400
_audit_creation_method            fapswitch 2.2
_symmetry_space_group_name_H-M    P1
_symmetry_Int_Tables_number       1
_space_group_crystal_system       triclinic
_cell_length_a                    7.764198
_cell_length_b                    9.098634
_cell_length_c                    17.218525
_cell_angle_alpha                 89.563895
_cell_angle_beta                  92.425756
_cell_angle_gamma                 90.00492
_cell_volume                      1215.25329402

loop_
_atom_site_label
_atom_site_type_symbol
_atom_type_description
_atom_site_fract_x
_atom_site_fract_y
_atom_site_fract_z
_atom_type_partial_charge
C1    C     C_R   0.499978 0.219940 0.500005 0.560552
C2    C     C_R   0.603098 0.465662 0.138202 -0.068320
C3    C     C_R   0.552815 0.493483 0.900882 0.222746
C4    C     C_R   0.447197 0.506565 0.099118 0.222749
C5    C     C_R   0.696329 0.456559 0.857332 0.024660
C6    C     C_R   0.303684 0.543490 0.142669 0.024651
C7    C     C_R   0.680449 0.461069 0.776196 -0.167237
C8    C     C_R   0.319557 0.538957 0.223805 -0.167239
C9    C     C_1   0.499990 0.065344 0.500001 -0.029774
C10   C     C_1   0.500010 0.934655 0.499999 -0.029774
C11   C     C_2   0.793380 0.425279 0.253765 0.223793
C12   C     C_R   0.500022 0.780060 0.499994 0.560553
C13   C     C_2   0.206614 0.574708 0.746234 0.223792
C14   C     C_2   0.865187 0.410774 0.893683 0.306240
C15   C     C_2   0.134836 0.589298 0.106318 0.306250
C16   C     C_R   0.518213 0.499426 0.651316 0.547409
C17   C     C_R   0.481787 0.500574 0.348684 0.547410
C18   C     C_R   0.523807 0.498140 0.737075 -0.023203
C19   C     C_R   0.476194 0.501869 0.262925 -0.023196
C20   C     C_R   0.379131 0.535159 0.780939 -0.026570
C21   C     C_R   0.620869 0.464849 0.219061 -0.026570
C22   C     C_R   0.396907 0.534366 0.861798 -0.068317
Cu1   Cu    Cu3+1 0.669080 0.500010 0.500000 1.037562
Cu2   Cu    Cu3+1 0.330920 0.499990 0.500000 1.037562
H1    H     H_    0.850887 0.485578 0.302163 0.142474
H2    H     H_    0.149114 0.514396 0.697839 0.142470
H3    H     H_    0.714246 0.436558 0.105584 0.214668
H4    H     H_    0.285757 0.563466 0.894415 0.214677
H5    H     H_    0.974812 0.394906 0.857532 0.103525
H6    H     H_    0.025190 0.605103 0.142464 0.103534
H7    H     H_    0.791328 0.432523 0.743152 0.131490
H8    H     H_    0.208679 0.567504 0.256849 0.131484
N1    N     N_1   0.076820 0.499970 0.500010 -0.086598
N2    N     N_1   0.923180 0.500030 0.499990 -0.086598
N3    N     N_2   0.568687 0.489553 0.983341 -0.179459
N4    N     N_2   0.431325 0.510500 0.016659 -0.179461
O1    O     O_R   0.642760 0.288400 0.500000 -0.492781
O2    O     O_2   0.122408 0.673022 0.774149 -0.488268
O3    O     O_2   0.884430 0.387800 0.963428 -0.435337
O4    O     O_2   0.115628 0.612367 0.036580 -0.435307
O5    O     O_R   0.357240 0.711600 0.500000 -0.492780
O6    O     O_R   0.357190 0.288380 0.500000 -0.492201
O7    O     O_R   0.642810 0.711620 0.500000 -0.492199
O8    O     O_R   0.658410 0.498660 0.613920 -0.497726
O9    O     O_R   0.341590 0.501340 0.386080 -0.497727
O10   O     O_R   0.372840 0.498650 0.613930 -0.527669
O11   O     O_R   0.627160 0.501350 0.386070 -0.527672
O12   O     O_2   0.877572 0.326958 0.225847 -0.488265

loop_
_geom_bond_atom_site_label_1
_geom_bond_atom_site_label_2
_ccdc_geom_bond_type
C2    C4    A    
Cu1   Cu2   S    
C4    N4    S    
C12   O5    A    
C1    O1    A    
Cu2   O6    S    
C9    C10   T    
C16   O8    A    
Cu2   N1    S    
C3    N3    S    
Cu1   N2    S    
Cu2   O10   S    
C7    C18   A    
C2    C21   A    
N1    N2    T    
C11   O12   D    
C1    C9    S    
C22   H4    S    
Cu2   O5    S    
C5    C14   S    
C2    H3    S    
C10   C12   S    
Cu2   O9    S    
C16   C18   S    
C17   C19   S    
C13   O2    D    
C12   O7    A    
C18   C20   A    
C20   C22   A    
C14   O3    D    
C15   O4    D    
C13   H2    S    
C8    C19   A    
C7    H7    S    
Cu1   O11   S    
C14   H5    S    
C8    H8    S    
C1    O6    A    
Cu1   O7    S    
C15   H6    S    
C4    C6    A    
C16   O10   A    
C5    C7    A    
C11   H1    S    
C3    C22   A    
C6    C8    A    
C13   C20   S    
C19   C21   A    
C6    C15   S    
Cu1   O1    S    
C11   C21   S    
Cu1   O8    S    
C17   O11   A    
C17   O9    A    
C3    C5    A    
N3    N4    D    
