data_mof_unit_pretest_72.cif
_audit_creation_date              2013-03-05T16:46:59-0500
_audit_creation_method            fapswitch 2.2
_symmetry_space_group_name_H-M    P1
_symmetry_Int_Tables_number       1
_space_group_crystal_system       triclinic
_cell_length_a                    14.958791
_cell_length_b                    8.917115
_cell_length_c                    8.120292
_cell_angle_alpha                 90.037094
_cell_angle_beta                  89.999772
_cell_angle_gamma                 89.999958
_cell_volume                      1083.15951067

loop_
_atom_site_label
_atom_site_type_symbol
_atom_site_description
_atom_site_fract_x
_atom_site_fract_y
_atom_site_fract_z
_atom_type_partial_charge
O1    O     O_R   0.500000 0.285350 0.636850 -0.619422
O2    O     O_R   0.500000 0.714650 0.363150 -0.619423
O3    O     O_R   0.500000 0.714650 0.636850 -0.614367
O4    O     O_R   0.500000 0.285350 0.363150 -0.614367
H1    H     H_    0.919643 0.126081 0.579876 0.176179
H2    H     H_    0.080357 0.873916 0.420102 0.176179
H3    H     H_    0.919643 0.873916 0.420102 0.176178
H4    H     H_    0.080357 0.126081 0.579875 0.176178
C1    C     C_R   0.500000 0.218080 0.499969 0.916707
C2    C     C_R   0.500000 0.781920 0.500031 0.916707
O5    O     O_R   0.367850 0.500000 0.636890 -0.620331
O6    O     O_R   0.632150 0.500000 0.363110 -0.620332
O7    O     O_R   0.632150 0.500000 0.636890 -0.620331
O8    O     O_R   0.367850 0.500000 0.363110 -0.620332
C3    C     C_R   0.326854 0.500001 0.500000 0.874737
C4    C     C_R   0.673146 0.500000 0.500000 0.874737
Zn1   Zn    Zn3+2 0.500000 0.500000 0.682780 0.981931
Zn2   Zn    Zn3+2 0.500000 0.500000 0.317220 0.981931
N1    N     N_1   0.500000 0.500000 0.073640 -0.032651
N2    N     N_1   0.500000 0.500000 0.926360 -0.032652
C5    C     C_R   0.813362 0.635297 0.471455 0.004820
C6    C     C_R   0.186638 0.364702 0.528536 0.004821
C7    C     C_R   0.813363 0.364701 0.528535 0.004820
C8    C     C_R   0.186637 0.635298 0.471456 0.004819
C9    C     C_R   0.768245 0.500000 0.499998 -0.126911
C10   C     C_R   0.231755 0.500001 0.500000 -0.126912
C11   C     C_R   0.906463 0.364402 0.528734 0.133162
C12   C     C_R   0.093537 0.635595 0.471247 0.133161
C13   C     C_R   0.906463 0.635595 0.471247 0.133161
C14   C     C_R   0.093537 0.364402 0.528733 0.133160
C15   C     C_R   0.953175 0.499998 0.499989 -0.010089
C16   C     C_R   0.046825 0.499998 0.499989 -0.010089
C17   C     C_R   0.953751 0.231158 0.557118 -0.203701
C18   C     C_R   0.046249 0.768839 0.442859 -0.203701
C19   C     C_R   0.953750 0.768839 0.442859 -0.203701
C20   C     C_R   0.046249 0.231158 0.557117 -0.203702
C21   C     C_1   0.500000 0.065239 0.499956 -0.197085
C22   C     C_1   0.500000 0.934761 0.500043 -0.197085
N3    N     N_3   0.765008 0.772613 0.444492 -0.468970
H5    H     H_    0.723906 0.792799 0.546282 0.187978
H6    H     H_    0.724723 0.760021 0.340216 0.204440
N4    N     N_3   0.234992 0.227388 0.555508 -0.468965
H7    H     H_    0.275262 0.239978 0.659808 0.204439
H8    H     H_    0.276111 0.207213 0.453737 0.187975
N5    N     N_3   0.765008 0.227386 0.555501 -0.468970
H9    H     H_    0.723904 0.207201 0.453715 0.187978
H10   H     H_    0.724725 0.239978 0.659781 0.204439
N6    N     N_3   0.234991 0.772614 0.444493 -0.468968
H11   H     H_    0.275278 0.760022 0.340217 0.204440
H12   H     H_    0.276093 0.792800 0.546283 0.187977

loop_
_geom_bond_atom_site_label_1
_geom_bond_atom_site_label_2
_geom_bond_distance
_ccdc_geom_bond_type
C21   C22   1.163485 T    
C7    N5    1.439019 S    
C14   C20   1.401984 A    
O2    Zn2   1.949820 S    
C8    C12   1.392674 A    
O8    Zn2   2.011619 S    
O1    Zn1   1.949821 S    
N1    N2    1.195956 T    
C5    N3    1.439019 S    
O7    Zn1   2.011617 S    
C2    C22   1.362898 S    
O4    Zn2   1.950295 S    
Zn1   N2    1.977941 S    
C1    C21   1.362898 S    
C12   C18   1.401982 A    
C13   C15   1.416013 A    
O3    C2    1.262951 A    
N5    H9    1.045674 S    
C11   C17   1.401982 A    
C14   C16   1.416012 A    
H3    C19   1.082879 S    
C6    N4    1.439018 S    
N5    H10   1.045298 S    
N4    H8    1.045687 S    
N6    H12   1.045675 S    
N6    H11   1.045299 S    
C8    C10   1.401837 A    
O3    Zn1   1.950294 S    
O5    C3    1.269531 A    
C7    C11   1.392674 A    
C7    C9    1.401837 A    
H4    C20   1.082879 S    
N4    H7    1.045311 S    
N3    H5    1.045674 S    
C11   C15   1.416014 A    
C8    N6    1.439019 S    
O6    C4    1.269530 A    
C12   C16   1.416013 A    
C17   C20   1.383667 A    
O1    C1    1.262704 A    
N3    H6    1.045298 S    
C18   C19   1.383667 A    
C6    C10   1.401837 A    
O7    C4    1.269532 A    
O6    Zn2   2.011620 S    
C4    C9    1.422557 S    
C13   C19   1.401982 A    
O8    C3    1.269530 A    
Zn2   N1    1.977941 S    
C3    C10   1.422556 S    
C5    C9    1.401836 A    
C6    C14   1.392674 A    
O4    C1    1.262951 A    
C5    C13   1.392674 A    
C15   C16   1.400895 A    
O5    Zn1   2.011622 S    
H2    C18   1.082878 S    
H1    C17   1.082878 S    
O2    C2    1.262704 A    
