data_mof_unit_pretest_1574.cif
_audit_creation_date              2012-10-26T18:03:08-0400
_audit_creation_method            fapswitch 2.2
_symmetry_space_group_name_H-M    P1
_symmetry_Int_Tables_number       1
_space_group_crystal_system       triclinic
_cell_length_a                    18.382966
_cell_length_b                    18.382966
_cell_length_c                    35.725909
_cell_angle_alpha                 90.000081
_cell_angle_beta                  90.000079
_cell_angle_gamma                 90.009436
_cell_volume                      12072.9791245

loop_
_atom_site_label
_atom_site_type_symbol
_atom_type_description
_atom_site_fract_x
_atom_site_fract_y
_atom_site_fract_z
_atom_type_partial_charge
C1    C     C_R   0.500005 0.139782 0.500000 0.561803
C2    C     C_1   0.717579 0.499991 0.500000 -0.047635
C3    C     C_3   0.202706 0.513474 0.174037 -0.309856
C4    C     C_3   0.395729 0.848504 0.806534 -0.309460
C5    C     C_3   0.848512 0.604231 0.806534 -0.309479
C6    C     C_3   0.604271 0.151499 0.806536 -0.309459
C7    C     C_3   0.151488 0.395769 0.806534 -0.309480
C8    C     C_3   0.895739 0.651469 0.693465 -0.309481
C9    C     C_3   0.348502 0.895729 0.693464 -0.309460
C10   C     C_3   0.104259 0.348529 0.693464 -0.309481
C11   C     C_3   0.651495 0.104272 0.693466 -0.309459
C12   C     C_3   0.986605 0.297288 0.325963 -0.309854
C13   C     C_1   0.499989 0.717579 0.500000 -0.047876
C14   C     C_3   0.348722 0.104580 0.306555 -0.309824
C15   C     C_3   0.013350 0.702713 0.325962 -0.309853
C16   C     C_3   0.651276 0.895420 0.306554 -0.309827
C17   C     C_1   0.282421 0.500009 0.500000 -0.047634
C18   C     C_1   0.000009 0.782421 1.000000 -0.047634
C19   C     C_1   0.217579 0.999989 0.000000 -0.047876
C20   C     C_1   0.999991 0.217579 1.000000 -0.047634
C21   C     C_1   0.782421 0.000010 1.000000 -0.047876
C22   C     C_1   0.500013 0.217205 0.500000 -0.049919
C23   C     C_1   0.782795 0.499988 0.500000 -0.049603
C24   C     C_1   0.499987 0.782795 0.500000 -0.049919
C25   C     C_R   0.860218 0.499995 0.500000 0.562639
C26   C     C_1   0.217205 0.500012 0.500000 -0.049603
C27   C     C_1   0.000012 0.717205 1.000000 -0.049603
C28   C     C_1   0.282795 0.999987 0.000000 -0.049919
C29   C     C_1   0.999988 0.282795 1.000000 -0.049603
C30   C     C_1   0.717205 0.000013 1.000000 -0.049919
C31   C     C_R   0.500000 0.000000 0.427795 0.547566
C32   C     C_R   1.000000 0.500000 0.427775 0.549518
C33   C     C_R   0.500000 1.000000 0.572206 0.547509
C34   C     C_R   0.000000 0.500000 0.572206 0.547939
C35   C     C_R   1.000000 0.500000 0.927794 0.547940
C36   C     C_R   0.499995 0.860218 0.500000 0.561803
C37   C     C_R   0.500000 1.000000 0.927794 0.547510
C38   C     C_R   1.000000 0.500000 0.072225 0.549517
C39   C     C_R   0.500000 0.000000 0.072205 0.547566
C40   C     C_R   0.485592 0.064897 0.172850 0.131371
C41   C     C_R   0.933081 0.496792 0.173058 0.139220
C42   C     C_R   0.514408 0.935103 0.172850 0.131371
C43   C     C_R   0.066919 0.503208 0.173058 0.139219
C44   C     C_R   0.485729 0.935069 0.827149 0.131051
C45   C     C_R   0.935071 0.514254 0.827149 0.131057
C46   C     C_R   0.514272 0.064930 0.827149 0.131052
C47   C     C_R   0.139782 0.500004 0.500000 0.562640
C48   C     C_R   0.064929 0.485745 0.827149 0.131058
C49   C     C_R   0.985733 0.564927 0.672851 0.131058
C50   C     C_R   0.435070 0.985728 0.672851 0.131052
C51   C     C_R   0.014267 0.435074 0.672851 0.131059
C52   C     C_R   0.564931 0.014271 0.672851 0.131051
C53   C     C_R   0.996819 0.433079 0.326942 0.139215
C54   C     C_R   0.435103 0.014408 0.327150 0.131371
C55   C     C_R   0.003180 0.566919 0.326942 0.139214
C56   C     C_R   0.564896 0.985592 0.327150 0.131371
C57   C     C_R   0.485956 0.064286 0.133603 -0.104630
C58   C     C_R   0.000005 0.639782 1.000000 0.562640
C59   C     C_R   0.934253 0.497652 0.133589 -0.111586
C60   C     C_R   0.514043 0.935714 0.133603 -0.104630
C61   C     C_R   0.065747 0.502348 0.133589 -0.111589
C62   C     C_R   0.486087 0.935681 0.866396 -0.104807
C63   C     C_R   0.935682 0.513897 0.866396 -0.104809
C64   C     C_R   0.513914 0.064319 0.866396 -0.104807
C65   C     C_R   0.064317 0.486103 0.866396 -0.104809
C66   C     C_R   0.986091 0.564315 0.633604 -0.104809
C67   C     C_R   0.435681 0.986086 0.633603 -0.104807
C68   C     C_R   0.013909 0.435685 0.633603 -0.104809
C69   C     C_R   0.360218 0.999995 0.000000 0.561803
C70   C     C_R   0.564319 0.013913 0.633604 -0.104807
C71   C     C_R   0.997677 0.434252 0.366411 -0.111588
C72   C     C_R   0.435714 0.014043 0.366397 -0.104630
C73   C     C_R   0.002322 0.565747 0.366411 -0.111595
C74   C     C_R   0.564286 0.985956 0.366397 -0.104630
C75   C     C_R   0.500000 0.000000 0.113673 -0.055321
C76   C     C_R   0.000000 0.500000 0.113755 -0.051015
C77   C     C_R   0.500000 1.000000 0.886327 -0.055617
C78   C     C_R   1.000000 0.500000 0.886327 -0.055612
C79   C     C_R   1.000000 0.500000 0.613673 -0.055610
C80   C     C_R   0.999995 0.360218 1.000000 0.562640
C81   C     C_R   0.500000 1.000000 0.613673 -0.055618
C82   C     C_R   1.000000 0.500000 0.386245 -0.051013
C83   C     C_R   0.500000 0.000000 0.386327 -0.055321
C84   C     C_R   0.359848 0.500003 0.500000 0.560605
C85   C     C_R   0.500003 0.359848 0.500000 0.560565
C86   C     C_R   0.640152 0.499997 0.500000 0.560605
C87   C     C_R   0.499996 0.640152 0.500000 0.560565
C88   C     C_R   0.859848 0.000003 1.000000 0.560565
C89   C     C_R   0.000003 0.859848 1.000000 0.560605
C90   C     C_R   0.140152 0.999996 0.000000 0.560565
C91   C     C_R   0.639782 0.000005 1.000000 0.561803
C92   C     C_R   0.999997 0.140152 1.000000 0.560605
C93   C     C_R   0.500000 0.000000 0.192694 0.043925
C94   C     C_R   0.000000 0.500000 0.192635 0.051774
C95   C     C_R   0.500000 1.000000 0.807306 0.043576
C96   C     C_R   1.000000 0.500000 0.807306 0.043578
C97   C     C_R   1.000000 0.500000 0.692694 0.043578
C98   C     C_R   0.500000 1.000000 0.692694 0.043576
C99   C     C_R   0.000000 0.499999 0.307365 0.051780
C100  C     C_R   0.500000 0.000000 0.307306 0.043925
C101  C     C_1   0.500000 0.000000 0.233135 -0.044743
C102  C     C_1   0.500010 0.282421 0.500000 -0.047876
C103  C     C_1   0.000001 0.500000 0.233129 -0.024699
C104  C     C_1   0.500000 1.000000 0.766865 -0.045165
C105  C     C_1   1.000000 0.500000 0.766865 -0.045165
C106  C     C_1   1.000000 0.500000 0.733135 -0.045165
C107  C     C_1   0.500000 1.000000 0.733135 -0.045165
C108  C     C_1   0.000001 0.500000 0.266871 -0.024688
C109  C     C_1   0.500000 0.000000 0.266865 -0.044743
C110  C     C_3   0.395419 0.151278 0.193445 -0.309824
C111  C     C_3   0.797296 0.486506 0.174037 -0.309860
C112  C     C_3   0.604580 0.848724 0.193446 -0.309824
Cu1   Cu    Cu3+1 0.572400 0.000000 0.500000 0.942890
Cu2   Cu    Cu3+1 0.500000 0.500000 0.537120 0.952237
Cu3   Cu    Cu3+1 0.000000 0.000000 0.962880 0.952240
Cu4   Cu    Cu3+1 0.000000 0.000000 0.037120 0.955781
Cu5   Cu    Cu3+1 1.000000 0.572400 0.500000 0.939547
Cu6   Cu    Cu3+1 0.427600 0.000000 0.500000 0.942891
Cu7   Cu    Cu3+1 1.000000 0.427600 0.500000 0.939547
Cu8   Cu    Cu3+1 0.072400 0.500000 0.000000 0.939547
Cu9   Cu    Cu3+1 0.500000 0.072400 0.000000 0.942890
Cu10  Cu    Cu3+1 0.927600 0.500000 0.000000 0.939548
Cu11  Cu    Cu3+1 0.500000 0.927600 0.000000 0.942891
Cu12  Cu    Cu3+1 0.500000 0.500000 0.462880 0.955784
H1    H     H_    0.475097 0.114471 0.118717 0.149639
H2    H     H_    0.385470 0.975329 0.618719 0.150227
H3    H     H_    0.024662 0.385476 0.618719 0.150217
H4    H     H_    0.614530 0.024671 0.618719 0.150228
H5    H     H_    0.995682 0.384065 0.382105 0.136800
H6    H     H_    0.385528 0.024902 0.381283 0.149639
H7    H     H_    0.004319 0.615934 0.382105 0.136799
H8    H     H_    0.614471 0.975098 0.381283 0.149639
H9    H     H_    0.497409 0.137453 0.217223 0.257130
H10   H     H_    0.389632 0.205274 0.207053 0.141321
H11   H     H_    0.364679 0.110430 0.210079 0.143474
H12   H     H_    0.884068 0.495638 0.117895 0.136799
H13   H     H_    0.372100 0.154804 0.164810 0.156993
H14   H     H_    0.867702 0.466133 0.218698 0.254722
H15   H     H_    0.752004 0.486286 0.194611 0.143590
H16   H     H_    0.795851 0.434557 0.158161 0.142728
H17   H     H_    0.788760 0.533481 0.154993 0.154771
H18   H     H_    0.502590 0.862547 0.217223 0.257130
H19   H     H_    0.610368 0.794728 0.207053 0.141322
H20   H     H_    0.635319 0.889572 0.210081 0.143474
H21   H     H_    0.627901 0.845199 0.164811 0.156994
H22   H     H_    0.132300 0.533878 0.218696 0.254719
H23   H     H_    0.524902 0.885529 0.118717 0.149640
H24   H     H_    0.247998 0.513689 0.194612 0.143592
H25   H     H_    0.204163 0.565420 0.158159 0.142724
H26   H     H_    0.211233 0.466492 0.154996 0.154772
H27   H     H_    0.497717 0.862535 0.782783 0.256741
H28   H     H_    0.390046 0.794496 0.792926 0.141609
H29   H     H_    0.364936 0.889289 0.789892 0.142703
H30   H     H_    0.372389 0.844933 0.835164 0.157528
H31   H     H_    0.862536 0.502245 0.782783 0.256742
H32   H     H_    0.794504 0.609899 0.792926 0.141601
H33   H     H_    0.889299 0.635034 0.789891 0.142706
H34   H     H_    0.115932 0.504363 0.117895 0.136799
H35   H     H_    0.844943 0.627572 0.835163 0.157490
H36   H     H_    0.502284 0.137464 0.782782 0.256740
H37   H     H_    0.609952 0.205507 0.792928 0.141609
H38   H     H_    0.635067 0.110714 0.789895 0.142703
H39   H     H_    0.627609 0.155072 0.835166 0.157526
H40   H     H_    0.137463 0.497754 0.782783 0.256743
H41   H     H_    0.205496 0.390102 0.792926 0.141602
H42   H     H_    0.110701 0.364966 0.789891 0.142706
H43   H     H_    0.155057 0.372428 0.835163 0.157490
H44   H     H_    0.997725 0.637463 0.717218 0.256743
H45   H     H_    0.475330 0.885469 0.881281 0.150228
H46   H     H_    0.890060 0.705476 0.707073 0.141601
H47   H     H_    0.864942 0.610676 0.710107 0.142706
H48   H     H_    0.872400 0.655034 0.664835 0.157491
H49   H     H_    0.362536 0.997715 0.717218 0.256740
H50   H     H_    0.294494 0.890046 0.707072 0.141609
H51   H     H_    0.389287 0.864933 0.710105 0.142702
H52   H     H_    0.344929 0.872390 0.664834 0.157526
H53   H     H_    0.002274 0.362537 0.717218 0.256743
H54   H     H_    0.109937 0.294523 0.707072 0.141602
H55   H     H_    0.135057 0.389321 0.710106 0.142706
H56   H     H_    0.885472 0.524640 0.881281 0.150219
H57   H     H_    0.127598 0.344964 0.664834 0.157490
H58   H     H_    0.637465 0.002283 0.717217 0.256741
H59   H     H_    0.705503 0.109955 0.707074 0.141610
H60   H     H_    0.610710 0.135064 0.710108 0.142703
H61   H     H_    0.655066 0.127612 0.664836 0.157527
H62   H     H_    0.966179 0.367687 0.281303 0.254719
H63   H     H_    0.986409 0.251995 0.305388 0.143588
H64   H     H_    0.934659 0.295810 0.341840 0.142724
H65   H     H_    0.033590 0.288779 0.345004 0.154769
H66   H     H_    0.362547 0.002590 0.282777 0.257131
H67   H     H_    0.524670 0.114530 0.881281 0.150227
H68   H     H_    0.294725 0.110367 0.292947 0.141319
H69   H     H_    0.389569 0.135320 0.289921 0.143475
H70   H     H_    0.345195 0.127899 0.335190 0.156992
H71   H     H_    0.033847 0.632314 0.281310 0.254715
H72   H     H_    0.013536 0.748003 0.305386 0.143596
H73   H     H_    0.065287 0.704217 0.341847 0.142714
H74   H     H_    0.966352 0.711200 0.344997 0.154774
H75   H     H_    0.637453 0.997410 0.282777 0.257131
H76   H     H_    0.705273 0.889632 0.292947 0.141318
H77   H     H_    0.610428 0.864680 0.289920 0.143475
H78   H     H_    0.114528 0.475360 0.881281 0.150219
H79   H     H_    0.654802 0.872099 0.335189 0.156992
H80   H     H_    0.975338 0.614524 0.618719 0.150217
N1    N     N_2   0.471500 0.131612 0.191804 -0.518918
N2    N     N_2   0.368323 0.971773 0.691804 -0.518587
N3    N     N_2   0.028216 0.368330 0.691804 -0.518583
N4    N     N_2   0.631678 0.028227 0.691805 -0.518588
N5    N     N_2   0.993798 0.365909 0.306405 -0.511529
N6    N     N_2   0.368388 0.028500 0.308196 -0.518918
N7    N     N_2   0.006202 0.634088 0.306405 -0.511530
N8    N     N_2   0.631611 0.971500 0.308196 -0.518919
N9    N     N_2   0.865912 0.493743 0.193594 -0.511530
N10   N     N_2   0.528500 0.868388 0.191804 -0.518919
N11   N     N_2   0.134088 0.506257 0.193595 -0.511530
N12   N     N_2   0.471774 0.868322 0.808195 -0.518589
N13   N     N_2   0.868325 0.528191 0.808195 -0.518582
N14   N     N_2   0.528226 0.131678 0.808196 -0.518588
N15   N     N_2   0.131675 0.471809 0.808195 -0.518583
N16   N     N_2   0.971782 0.631670 0.691804 -0.518582
O1    O     O_R   0.561120 0.105710 0.500130 -0.501372
O2    O     O_R   0.394290 0.061120 0.000130 -0.501726
O3    O     O_R   0.938880 0.394290 0.000130 -0.500586
O4    O     O_R   0.605710 0.938880 0.000130 -0.501726
O5    O     O_R   0.061120 0.394290 0.999870 -0.502398
O6    O     O_R   0.394290 0.938880 0.999870 -0.501373
O7    O     O_R   0.938880 0.605710 0.999870 -0.502397
O8    O     O_R   0.605710 0.061120 0.999870 -0.501373
O9    O     O_R   0.561120 0.999900 0.445770 -0.509915
O10   O     O_R   0.000100 0.561120 0.445770 -0.511847
O11   O     O_R   0.438880 0.000100 0.445770 -0.509915
O12   O     O_R   0.894290 0.561120 0.500130 -0.502400
O13   O     O_R   0.999900 0.438880 0.445770 -0.511848
O14   O     O_R   0.561120 0.000100 0.554230 -0.509737
O15   O     O_R   0.000100 0.438880 0.554230 -0.509518
O16   O     O_R   0.438880 0.999900 0.554230 -0.509738
O17   O     O_R   0.999900 0.561120 0.554230 -0.509518
O18   O     O_R   0.061120 0.499900 0.945770 -0.509519
O19   O     O_R   0.500100 0.061120 0.945770 -0.509738
O20   O     O_R   0.938880 0.500100 0.945770 -0.509519
O21   O     O_R   0.499900 0.938880 0.945770 -0.509737
O22   O     O_R   0.061120 0.500100 0.054230 -0.511847
O23   O     O_R   0.438880 0.894290 0.500130 -0.501372
O24   O     O_R   0.500100 0.938880 0.054230 -0.509915
O25   O     O_R   0.938880 0.499900 0.054230 -0.511847
O26   O     O_R   0.499900 0.061120 0.054230 -0.509915
O27   O     O_R   0.394010 0.499860 0.468680 -0.504061
O28   O     O_R   0.500140 0.394010 0.468680 -0.504367
O29   O     O_R   0.605990 0.500140 0.468680 -0.504062
O30   O     O_R   0.499860 0.605990 0.468680 -0.504368
O31   O     O_R   0.394010 0.500140 0.531320 -0.504983
O32   O     O_R   0.500140 0.605990 0.531320 -0.504898
O33   O     O_R   0.605990 0.499860 0.531320 -0.504982
O34   O     O_R   0.105710 0.438880 0.500130 -0.502400
O35   O     O_R   0.499860 0.394010 0.531320 -0.504898
O36   O     O_R   0.894010 0.999860 0.968680 -0.504897
O37   O     O_R   0.000140 0.894010 0.968680 -0.504982
O38   O     O_R   0.105990 0.000140 0.968680 -0.504897
O39   O     O_R   0.999860 0.105990 0.968680 -0.504982
O40   O     O_R   0.894010 0.000140 0.031320 -0.504368
O41   O     O_R   0.000140 0.105990 0.031320 -0.504062
O42   O     O_R   0.105990 0.999860 0.031320 -0.504368
O43   O     O_R   0.999860 0.894010 0.031320 -0.504062
O44   O     O_R   0.561120 0.894290 0.499870 -0.501727
O45   O     O_R   0.894290 0.438880 0.499870 -0.500583
O46   O     O_R   0.438880 0.105710 0.499870 -0.501727
O47   O     O_R   0.105710 0.561120 0.499870 -0.500583
O48   O     O_R   0.061120 0.605710 0.000130 -0.500586

loop_
_geom_bond_atom_site_label_1
_geom_bond_atom_site_label_2
_ccdc_geom_bond_type
C51   C97   A    
C87   O30   A    
C4    H30   S    
C96   C105  S    
C73   H7    S    
C25   O12   A    
C46   N14   S    
C74   H8    S    
C91   O8    A    
C42   C93   A    
C45   N13   S    
C64   C77   A    
Cu5   O10   S    
C62   C77   A    
C28   C69   S    
Cu11  O21   S    
C74   C83   A    
C43   N11   S    
C69   O6    A    
C64   H67   S    
C15   H72   S    
C111  H15   S    
C88   O36   A    
Cu11  O6    S    
C38   C76   S    
C53   C99   A    
C86   O33   A    
C12   H65   S    
C20   C92   S    
C24   C36   S    
Cu9   O8    S    
C3    H24   S    
C105  C106  T    
C84   O27   A    
C42   N10   S    
C10   H55   S    
C36   O44   A    
C112  H19   S    
C12   N5    S    
C56   N8    S    
C9    N2    S    
Cu5   Cu7   S    
C57   H1    S    
C15   H73   S    
C51   N3    S    
C37   O19   A    
Cu10  O7    S    
H9    N1    S    
Cu3   Cu4   S    
Cu7   O45   S    
C59   H12   S    
C43   C94   A    
C31   C83   S    
C112  H21   S    
C9    H52   S    
C1    O1    A    
C69   O2    A    
C70   C81   A    
Cu2   O33   S    
C34   O17   A    
C15   N7    S    
Cu4   O41   S    
C18   C27   T    
Cu6   O46   S    
C88   O40   A    
Cu7   O13   S    
Cu10  O20   S    
C46   C95   A    
C6    H38   S    
Cu8   Cu10  S    
C5    H35   S    
C31   O11   A    
C85   O28   A    
Cu12  O30   S    
Cu9   O2    S    
C9    H51   S    
C103  C108  T    
C89   O43   A    
C60   H23   S    
C39   C75   S    
C48   C65   A    
C16   H79   S    
C50   C67   A    
C40   C93   A    
H22   N11   S    
Cu4   O40   S    
C8    H47   S    
C32   O13   A    
C71   C82   A    
C66   H80   S    
C68   C79   A    
C4    H29   S    
C7    H41   S    
C21   C88   S    
Cu5   O17   S    
C100  C109  S    
C6    N14   S    
C84   O31   A    
C18   C89   S    
C66   C79   A    
C110  H11   S    
C87   O32   A    
C35   O18   A    
C4    H28   S    
C34   O15   A    
Cu11  O24   S    
C8    H46   S    
C111  H16   S    
C3    N11   S    
C32   O10   A    
C20   C29   T    
C61   C76   A    
Cu1   O14   S    
C38   O22   A    
C5    N13   S    
C3    H25   S    
C56   C74   A    
C49   C66   A    
C1    O46   A    
C49   N16   S    
C10   H54   S    
C111  N9    S    
C16   N8    S    
C89   O37   A    
H18   N10   S    
C47   O34   A    
Cu3   O37   S    
C50   C98   A    
C93   C101  S    
C8    N16   S    
C15   H74   S    
C14   N6    S    
H75   N8    S    
C44   C62   A    
Cu9   O19   S    
C12   H63   S    
C37   C77   S    
Cu8   O48   S    
Cu3   O38   S    
C63   H56   S    
H53   N3    S    
C13   C24   T    
C46   C64   A    
Cu1   O44   S    
Cu12  O28   S    
C10   N3    S    
C90   O38   A    
H71   N7    S    
Cu12  O29   S    
C99   C108  S    
H14   N9    S    
C34   C79   S    
C71   H5    S    
C39   O26   A    
C41   N9    S    
C14   H68   S    
C85   O35   A    
C41   C94   A    
C6    H37   S    
C54   N6    S    
Cu6   O11   S    
Cu2   O32   S    
C13   C87   S    
C52   N4    S    
C11   H59   S    
C9    H50   S    
Cu8   O22   S    
H44   N16   S    
C72   H6    S    
C19   C28   T    
C68   H3    S    
C41   C59   A    
C104  C107  T    
Cu5   O47   S    
C33   O16   A    
C26   C47   S    
Cu10  O25   S    
C97   C106  S    
C50   N2    S    
H40   N15   S    
Cu7   O15   S    
Cu9   O26   S    
C59   C76   A    
C7    H42   S    
C33   C81   S    
C94   C103  S    
C67   C81   A    
C5    H33   S    
Cu10  O3    S    
C80   O5    A    
H49   N2    S    
C67   H2    S    
C11   N4    S    
C17   C26   T    
C55   C99   A    
C16   H77   S    
C53   C71   A    
Cu7   O34   S    
C42   C60   A    
C73   C82   A    
Cu2   O35   S    
C92   O39   A    
C112  N10   S    
Cu6   O23   S    
C43   C61   A    
C37   O21   A    
C39   O24   A    
C21   C30   T    
C70   H4    S    
C62   H45   S    
C7    H43   S    
C40   N1    S    
C3    H26   S    
C40   C57   A    
C48   C96   A    
Cu5   O12   S    
C44   N12   S    
C36   O23   A    
C14   H69   S    
C110  H13   S    
C11   H60   S    
C92   O41   A    
C49   C97   A    
C30   C91   S    
C27   C58   S    
C16   H76   S    
C25   O45   A    
C8    H48   S    
H31   N13   S    
Cu1   O9    S    
Cu1   O1    S    
C98   C107  S    
H36   N14   S    
C5    H32   S    
C32   C82   S    
Cu11  O4    S    
C35   C78   S    
C35   O20   A    
C22   C102  T    
Cu8   O18   S    
H27   N12   S    
C17   C84   S    
C57   C75   A    
Cu12  O27   S    
H66   N6    S    
Cu2   Cu12  S    
C19   C90   S    
Cu3   O39   S    
C61   H34   S    
C95   C104  S    
C47   O47   A    
C38   O25   A    
C112  H20   S    
C29   C80   S    
C4    N12   S    
C86   O29   A    
C58   O7    A    
Cu2   O31   S    
C31   O9    A    
C110  H10   S    
C52   C98   A    
C54   C100  A    
C11   H61   S    
C2    C86   S    
C110  N1    S    
H58   N4    S    
C51   C68   A    
C23   C25   S    
C14   H70   S    
C90   O42   A    
Cu9   Cu11  S    
C60   C75   A    
C52   C70   A    
C111  H17   S    
C72   C83   A    
C55   N7    S    
Cu1   Cu6   S    
C55   C73   A    
Cu6   O16   S    
C1    C22   S    
C54   C72   A    
C6    H39   S    
C33   O14   A    
C53   N5    S    
H62   N5    S    
C58   O48   A    
C2    C23   T    
Cu4   O43   S    
C10   H57   S    
C56   C100  A    
Cu4   O42   S    
C65   C78   A    
C7    N15   S    
C91   O4    A    
C45   C96   A    
C101  C109  T    
Cu8   O5    S    
C63   C78   A    
C45   C63   A    
C44   C95   A    
C85   C102  S    
C65   H78   S    
Cu3   O36   S    
C80   O3    A    
C48   N15   S    
C12   H64   S    
