data_mof_unit_pretest_847.cif
_audit_creation_date              2013-03-05T15:55:03-0500
_audit_creation_method            fapswitch 2.2
_symmetry_space_group_name_H-M    P1
_symmetry_Int_Tables_number       1
_space_group_crystal_system       triclinic
_cell_length_a                    14.964199
_cell_length_b                    14.859025
_cell_length_c                    14.938134
_cell_angle_alpha                 109.41032
_cell_angle_beta                  110.287918
_cell_angle_gamma                 109.062758
_cell_volume                      2545.6750909

loop_
_atom_site_label
_atom_site_type_symbol
_atom_site_description
_atom_site_fract_x
_atom_site_fract_y
_atom_site_fract_z
_atom_type_partial_charge
C1    C     C_R   0.186331 0.279049 0.254690 -0.137278
H1    H     H_    0.125824 0.303576 0.252147 0.121780
N1    N     N_R   0.291070 0.347930 0.293870 -0.050003
C2    C     C_R   0.526301 0.432832 0.747023 -0.124291
H2    H     H_    0.553708 0.374881 0.750425 0.115093
N2    N     N_R   0.554050 0.497220 0.706150 -0.040376
C3    C     C_R   0.517800 0.208905 0.409328 0.271947
N3    N     N_R   0.497240 0.291100 0.443210 -0.086368
C4    C     C_R   0.294995 0.600267 0.590669 -0.127130
H3    H     H_    0.332709 0.663350 0.675143 0.092005
N4    N     N_R   0.347890 0.554050 0.556810 -0.044167
C5    C     C_R   0.598113 0.292004 0.591438 -0.183735
H4    H     H_    0.656816 0.323729 0.676534 0.160914
N5    N     N_R   0.554050 0.347900 0.556830 -0.064310
C6    C     C_R   0.201494 0.506978 0.408125 -0.094403
H5    H     H_    0.149887 0.479368 0.322886 0.103286
N6    N     N_R   0.291070 0.497250 0.443190 -0.049494
C7    C     C_R   0.436804 0.527596 0.751208 -0.114936
H6    H     H_    0.384207 0.560064 0.762401 0.101391
N7    N     N_R   0.497240 0.554030 0.706140 -0.044025
C8    C     C_R   0.276011 0.184933 0.251780 -0.059220
H7    H     H_    0.296590 0.120596 0.243760 0.117016
N8    N     N_R   0.347890 0.291110 0.293870 -0.028985
C9    C     C_R   0.173256 0.175160 0.226010 0.032657
C10   C     C_R   0.453231 0.450433 0.777216 0.062874
C11   C     C_R   0.576027 0.203186 0.500262 -0.047441
C12   C     C_R   0.202126 0.573591 0.499116 0.084124
C13   C     C_R   0.475437 0.722139 0.408192 -0.071199
H8    H     H_    0.448926 0.698059 0.323141 0.109694
N9    N     N_R   0.445950 0.652100 0.443170 -0.044521
C14   C     C_R   0.812237 0.571633 0.593729 -0.131972
H9    H     H_    0.869245 0.635570 0.677937 0.130850
N10   N     N_R   0.708930 0.502750 0.556810 -0.046655
C15   C     C_R   0.496935 0.404963 0.197191 -0.126874
H10   H     H_    0.517445 0.341730 0.169695 0.154794
N11   N     N_R   0.502760 0.445970 0.293860 -0.044370
C16   C     C_R   0.706963 0.798905 0.804585 -0.152759
H11   H     H_    0.670542 0.845846 0.832113 0.107876
N12   N     N_R   0.652110 0.708890 0.706130 -0.043078
C17   C     C_R   0.799602 0.709334 0.806519 -0.139229
H12   H     H_    0.850529 0.676653 0.836226 0.112573
N13   N     N_R   0.708930 0.652070 0.706130 -0.045590
C18   C     C_R   0.405642 0.496406 0.195144 -0.149950
H13   H     H_    0.344743 0.519389 0.165326 0.124050
N14   N     N_R   0.445950 0.502780 0.293850 -0.051698
C19   C     C_R   0.564297 0.815659 0.592571 -0.116254
H14   H     H_    0.617222 0.879472 0.678260 0.095137
N15   N     N_R   0.502760 0.708900 0.556790 -0.044009
C20   C     C_R   0.724979 0.471434 0.410302 -0.007126
H15   H     H_    0.705330 0.435645 0.325458 0.119593
N16   N     N_R   0.652110 0.445950 0.443190 -0.040299
Ni1   Ni    Ni4+2 0.369690 0.500010 0.369700 0.220071
Ni2   Ni    Ni4+2 0.630310 0.499990 0.630300 0.232238
Ni3   Ni    Ni4+2 0.500000 0.369720 0.369720 0.305032
Ni4   Ni    Ni4+2 0.500000 0.630280 0.630280 0.210874
C21   C     C_R   0.549659 0.826472 0.500292 0.080936
C22   C     C_R   0.827915 0.550618 0.505121 0.019358
C23   C     C_R   0.436925 0.435481 0.132897 0.060794
C24   C     C_R   0.800614 0.802349 0.869988 0.083772
H16   H     H_    0.020638 0.452248 0.024099 0.207093
C25   C     C_R   0.090679 0.591434 0.184482 -0.090492
C26   C     C_R   0.091035 0.626812 0.285211 -0.166726
C27   C     C_R   0.019138 0.549712 0.299067 -0.168100
C28   C     C_R   0.943517 0.439960 0.210109 0.341564
C29   C     C_R   0.945130 0.407456 0.111685 -0.225462
H17   H     H_    0.890115 0.323298 0.044112 0.177890
C30   C     C_R   0.019875 0.481125 0.100398 -0.159619
C31   C     C_R   0.936868 0.579162 0.415884 -0.107460
H18   H     H_    0.863804 0.555072 0.342696 0.109494
C32   C     C_R   0.935061 0.593052 0.512505 0.054301
C33   C     C_R   0.034562 0.634668 0.610166 0.062163
C34   C     C_R   0.128377 0.652304 0.605182 -0.209581
H19   H     H_    0.201343 0.681791 0.680818 0.128440
C35   C     C_R   0.121777 0.609252 0.503095 0.047817
C36   C     C_R   0.027817 0.581742 0.408201 0.145526
C37   C     C_R   0.091405 0.740932 0.808303 -0.142492
H20   H     H_    0.129009 0.817242 0.809052 0.139140
C38   C     C_R   0.087288 0.743896 0.901151 -0.169272
H21   H     H_    0.122977 0.822294 0.973791 0.143680
C39   C     C_R   0.033181 0.645772 0.898699 -0.213255
H22   H     H_    0.025250 0.649358 0.968775 0.164238
C40   C     C_R   0.988135 0.543610 0.805598 0.419227
C41   C     C_R   0.996614 0.541140 0.714321 -0.258175
H23   H     H_    0.959822 0.462916 0.640818 0.190145
C42   C     C_R   0.042323 0.639332 0.713069 0.037761
C43   C     C_R   0.455859 0.349562 0.880520 0.148502
C44   C     C_R   0.410024 0.402890 0.834384 0.032351
C45   C     C_R   0.336695 0.427153 0.862306 -0.168499
H24   H     H_    0.292784 0.460938 0.823140 0.141464
C46   C     C_R   0.333542 0.424963 0.954198 -0.173178
H25   H     H_    0.287396 0.457194 0.982550 0.155060
C47   C     C_R   0.402869 0.397348 0.016889 0.032067
C48   C     C_R   0.451896 0.346491 0.970305 0.141290
C49   C     C_3   0.564539 0.360376 0.021533 -0.457886
C50   C     C_3   0.569386 0.364458 0.923854 -0.485759
H26   H     H_    0.625561 0.439691 0.100316 0.195181
H27   H     H_    0.562815 0.285939 0.024123 0.233608
H28   H     H_    0.633178 0.446404 0.947702 0.208794
H29   H     H_    0.571183 0.292732 0.870826 0.204655
C51   C     C_R   0.560559 0.930783 0.400306 0.113847
C52   C     C_R   0.597768 0.929025 0.499233 0.028622
C53   C     C_R   0.667470 0.031037 0.598541 -0.208850
H30   H     H_    0.705420 0.035424 0.677189 0.138144
C54   C     C_R   0.673887 0.127356 0.598770 -0.108607
H31   H     H_    0.715596 0.201419 0.677589 0.184945
C55   C     C_R   0.611771 0.121987 0.499564 0.061669
C56   C     C_R   0.567041 0.025663 0.400540 0.257261
C57   C     C_3   0.458277 0.962975 0.295724 -0.471536
C58   C     C_3   0.451305 0.859662 0.295494 -0.510517
H32   H     H_    0.394735 0.979607 0.307480 0.184420
H33   H     H_    0.465504 0.967477 0.225573 0.243467
H34   H     H_    0.383570 0.817822 0.307038 0.258600
H35   H     H_    0.454910 0.805859 0.225946 0.216171
C59   C     C_R   0.968845 0.074046 0.125512 0.198902
C60   C     C_R   0.068153 0.074018 0.170143 0.025618
C61   C     C_R   0.063101 0.971329 0.141180 -0.170221
H36   H     H_    0.135801 0.965968 0.179132 0.142614
C62   C     C_R   0.967465 0.875497 0.049491 -0.179045
H37   H     H_    0.969721 0.799734 0.020569 0.139719
C63   C     C_R   0.877612 0.882988 0.987334 0.017249
C64   C     C_R   0.874701 0.979622 0.035633 0.166119
C65   C     C_3   0.836658 0.042270 0.986436 -0.506109
C66   C     C_3   0.939695 0.145363 0.084032 -0.506387
H38   H     H_    0.835274 0.025080 0.907441 0.197376
H39   H     H_    0.760701 0.038093 0.985322 0.222704
H40   H     H_    0.996046 0.185897 0.059505 0.196580
H41   H     H_    0.923037 0.200490 0.138801 0.243021
C67   C     C_2   0.158560 0.668444 0.161838 0.992916
O1    O     O_2   0.198871 0.637926 0.107692 -0.673830
O2    O     O_R   0.171869 0.774128 0.197472 -0.812890
H42   H     H_    0.213362 0.816069 0.170388 0.315550
C68   C     C_2   0.169795 0.741886 0.377837 1.078594
O3    O     O_2   0.137510 0.795013 0.426459 -0.631551
O4    O     O_R   0.281141 0.788605 0.410513 -0.829560
H43   H     H_    0.326773 0.867080 0.474668 0.323788
N17   N     N_R   0.869121 0.359050 0.220218 0.218403
O5    O     O_R   0.903256 0.350111 0.307997 -0.399638
O6    O     O_R   0.771769 0.283739 0.135321 -0.412626
N18   N     N_R   0.929020 0.442877 0.801264 0.218254
O7    O     O_R   0.916644 0.351210 0.734181 -0.419716
O8    O     O_R   0.879465 0.440521 0.857536 -0.476476
N19   N     N_R   0.531803 0.180346 0.315210 0.215832
O9    O     O_R   0.465400 0.174374 0.226953 -0.453655
O10   O     O_R   0.623027 0.183603 0.325574 -0.373645

loop_
_geom_bond_atom_site_label_1
_geom_bond_atom_site_label_2
_geom_bond_distance
_ccdc_geom_bond_type
N15   Ni4   1.850389 S    
C44   C45   1.408503 A    
C28   N17   1.438939 S    
C52   C53   1.409225 A    
N1    N8    1.380110 A    
C67   O1    1.223503 D    
C11   C55   1.469353 S    
C54   C55   1.408636 A    
C59   C60   1.402287 A    
C13   C21   1.388434 A    
C50   H28   1.112388 S    
C3    N3    1.336059 A    
C57   C58   1.503052 S    
C31   C36   1.394301 A    
C24   C63   1.462045 S    
C3    C11   1.384169 A    
N9    N15   1.376358 A    
C13   H8    1.074795 S    
C16   H11   1.079696 S    
C37   C38   1.396382 A    
C21   C52   1.465576 S    
C15   H10   1.079361 S    
N13   Ni2   1.847057 S    
C39   H22   1.079780 S    
C50   H29   1.111956 S    
C55   C56   1.401816 A    
C6    H5    1.072345 S    
C10   C44   1.460111 S    
C20   C22   1.399549 A    
C61   H36   1.081758 S    
C1    H1    1.074708 S    
C20   H15   1.080291 S    
C62   H37   1.080192 S    
C47   C48   1.400078 A    
C18   C23   1.386541 A    
C33   C42   1.476935 S    
C59   C64   1.378761 A    
C46   C47   1.407606 A    
N12   Ni4   1.850510 S    
C41   H23   1.083624 S    
H16   C30   1.081873 S    
C61   C62   1.401773 A    
C68   O3    1.222899 D    
C20   N16   1.341348 A    
C56   C57   1.497097 S    
C14   N10   1.319703 A    
C32   C33   1.421363 A    
C22   C32   1.466722 S    
C12   C35   1.474708 S    
C4    H3    1.078830 S    
C7    N7    1.338424 A    
C58   H35   1.111928 S    
C17   N13   1.341858 A    
C51   C58   1.495879 S    
C17   C24   1.383759 A    
C8    H7    1.079286 S    
C53   H30   1.081336 S    
C7    C10   1.392816 A    
N7    Ni4   1.850628 S    
N6    Ni1   1.866825 S    
C54   H31   1.080480 S    
C2    C10   1.384850 A    
N12   N13   1.380108 A    
N10   Ni2   1.866827 S    
C19   N15   1.338296 A    
C35   C36   1.417998 A    
C26   C68   1.485770 S    
C37   H20   1.082992 S    
C34   C35   1.396573 A    
C58   H34   1.106563 S    
N3    Ni3   1.850390 S    
C38   H21   1.082258 S    
C7    H6    1.079754 S    
C66   H40   1.112323 S    
C49   H27   1.111768 S    
C29   C30   1.389756 A    
C5    C11   1.383542 A    
C1    N1    1.328337 A    
C53   C54   1.401538 A    
C18   H13   1.080929 S    
C40   N18   1.434609 S    
C43   C48   1.377876 A    
C18   N14   1.341636 A    
C25   C30   1.400422 A    
C6    C12   1.384954 A    
C14   H9    1.069941 S    
N1    Ni1   1.847057 S    
C26   C27   1.421188 A    
N11   N14   1.379863 A    
C48   C49   1.497601 S    
C45   H24   1.081758 S    
C49   H26   1.112531 S    
C4    N4    1.325072 A    
C64   C65   1.497156 S    
C16   C24   1.375318 A    
C9    C60   1.463179 S    
C68   O4    1.397004 S    
C59   C66   1.499371 S    
N17   O6    1.301344 A    
C17   H12   1.078873 S    
C41   C42   1.404321 A    
C45   C46   1.400417 A    
C29   H17   1.082909 S    
C49   C50   1.505783 S    
C8    N8    1.343337 A    
N19   O10   1.301963 A    
C2    N2    1.328586 A    
N2    Ni2   1.866754 S    
C65   H38   1.112403 S    
C66   H41   1.109883 S    
N4    Ni4   1.850898 S    
C63   C64   1.399378 A    
C4    C12   1.385879 A    
N8    Ni3   1.850511 S    
C6    N6    1.334924 A    
N9    Ni1   1.847248 S    
C19   H14   1.079133 S    
N4    N6    1.376356 A    
C51   C56   1.379920 A    
N3    N5    1.376356 A    
C43   C44   1.401252 A    
C31   H18   1.083574 S    
C5    N5    1.341119 A    
C34   H19   1.078753 S    
C67   O2    1.398449 S    
N18   O7    1.301188 A    
O4    H43   1.013771 S    
N10   N16   1.376356 A    
N2    N7    1.379865 A    
N14   Ni1   1.866754 S    
C57   H33   1.111205 S    
N16   Ni3   1.850898 S    
C28   C29   1.398501 A    
C14   C22   1.375873 A    
C65   H39   1.111830 S    
C13   N9    1.331217 A    
O2    H42   1.013241 S    
C33   C34   1.374852 A    
C16   N12   1.328153 A    
N18   O8    1.300994 A    
C46   H25   1.081477 S    
C27   C36   1.482634 S    
C51   C52   1.399687 A    
C39   C40   1.404008 A    
C57   H32   1.111972 S    
C25   C67   1.480522 S    
C38   C39   1.398408 A    
C25   C26   1.416803 A    
C62   C63   1.408231 A    
N11   Ni3   1.850627 S    
C43   C50   1.500199 S    
C27   C28   1.420314 A    
C2    H2    1.075912 S    
N5    Ni2   1.847248 S    
C5    H4    1.080103 S    
C15   N11   1.325649 A    
C1    C9    1.381958 A    
C31   C32   1.399721 A    
C40   C41   1.402265 A    
C8    C9    1.392894 A    
C19   C21   1.390975 A    
C15   C23   1.375440 A    
N19   O9    1.299841 A    
N17   O5    1.301368 A    
C65   C66   1.504443 S    
C23   C47   1.459504 S    
C37   C42   1.402156 A    
C3    N19   1.437540 S    
C60   C61   1.408662 A    
