data_mof_unit_pretest_1066.cif
_audit_creation_date              2012-10-26T19:22:18-0400
_audit_creation_method            fapswitch 2.2
_symmetry_space_group_name_H-M    P1
_symmetry_Int_Tables_number       1
_space_group_crystal_system       triclinic
_cell_length_a                    11.892132
_cell_length_b                    13.03475
_cell_length_c                    13.908539
_cell_angle_alpha                 83.314671
_cell_angle_beta                  91.808024
_cell_angle_gamma                 99.060172
_cell_volume                      2114.40834476

loop_
_atom_site_label
_atom_site_type_symbol
_atom_type_description
_atom_site_fract_x
_atom_site_fract_y
_atom_site_fract_z
_atom_type_partial_charge
C1    C     C_R   0.477929 0.300566 0.493556 0.533515
C2    C     C_R   0.850357 0.463186 0.550496 0.102491
C3    C     C_R   0.023013 0.510825 0.452797 -0.023228
C4    C     C_R   0.969479 0.456385 0.536318 -0.026236
C5    C     C_R   0.518549 0.501322 0.681585 0.553149
C6    C     C_R   0.481261 0.500771 0.318531 0.550516
C7    C     C_1   0.469771 0.510701 0.215684 -0.045878
C8    C     C_1   0.527973 0.500515 0.784546 -0.003127
C9    C     C_2   0.459766 0.535806 0.024532 -0.023061
C10   C     C_2   0.530762 0.489005 0.976025 -0.018534
C11   C     C_1   0.530880 0.496995 0.871505 -0.049694
C12   C     C_R   0.521405 0.699634 0.505947 0.543688
C13   C     C_1   0.462136 0.522151 0.128967 -0.073981
C14   C     C_R   0.533414 0.812560 0.516235 -0.016615
C15   C     C_R   0.463045 0.187771 0.482793 -0.022346
C16   C     C_R   0.343868 0.018292 0.508308 0.039013
C17   C     C_R   0.649524 0.982465 0.488444 0.043349
C18   C     C_R   0.354181 0.126380 0.476295 0.015785
C19   C     C_R   0.641159 0.875103 0.521145 0.029397
C20   C     C_R   0.559718 0.139395 0.485039 -0.162913
C21   C     C_R   0.435352 0.860047 0.515400 -0.153492
C22   C     C_R   0.606592 0.421739 0.028760 0.048421
C23   C     C_R   0.550957 0.030747 0.490966 0.023670
C24   C     C_R   0.721784 0.461101 0.041649 -0.115603
C25   C     C_R   0.795161 0.396178 0.086753 -0.136846
C26   C     C_R   0.752932 0.293529 0.124036 -0.112661
C27   C     C_R   0.636910 0.255236 0.115061 -0.123784
C28   C     C_R   0.563751 0.318951 0.066906 -0.097058
C29   C     C_R   0.382890 0.605267 0.975445 0.036489
C30   C     C_R   0.265952 0.586385 0.995836 -0.117439
C31   C     C_R   0.193866 0.653780 0.952322 -0.122785
C32   C     C_R   0.238209 0.741297 0.889414 -0.108163
C33   C     C_R   0.354677 0.761409 0.869818 -0.117455
C34   C     C_R   0.442634 0.969080 0.507465 0.020872
C35   C     C_R   0.426819 0.693636 0.912369 -0.090687
C36   C     C_3   0.740875 0.832200 0.574848 -0.262413
C37   C     C_3   0.784222 0.893803 0.659182 -0.466715
C38   C     C_3   0.254533 0.172534 0.424839 -0.264112
C39   C     C_3   0.204252 0.111667 0.341829 -0.461081
C40   C     C_3   0.231232 0.960532 0.550006 -0.279504
C41   C     C_3   0.242489 0.923960 0.657644 -0.450328
C42   C     C_3   0.760245 0.041756 0.445321 -0.275178
C43   C     C_3   0.745398 0.081885 0.338528 -0.448830
C44   C     C_R   0.801569 0.427602 0.646762 0.094958
C45   C     C_R   0.037135 0.395130 0.600022 -0.032327
C46   C     C_R   0.839859 0.484889 0.724137 -0.104423
C47   C     C_R   0.809908 0.444341 0.818727 -0.126471
C48   C     C_R   0.738861 0.348006 0.836523 -0.114478
C49   C     C_R   0.696331 0.292800 0.759858 -0.138242
C50   C     C_R   0.728659 0.331561 0.665446 -0.052014
C51   C     C_R   0.199731 0.619253 0.379619 0.093094
C52   C     C_R   0.193427 0.720426 0.401555 -0.104432
C53   C     C_R   0.235926 0.807976 0.337416 -0.126948
C54   C     C_R   0.284839 0.795614 0.250711 -0.104907
C55   C     C_R   0.287508 0.695633 0.226073 -0.126654
C56   C     C_R   0.950766 0.542966 0.375726 -0.026225
C57   C     C_R   0.242544 0.608057 0.288707 -0.069012
C58   C     C_R   0.798950 0.649075 0.334718 0.085507
C59   C     C_R   0.843348 0.750876 0.354165 -0.090683
C60   C     C_R   0.822226 0.837269 0.290920 -0.118539
C61   C     C_R   0.756184 0.823151 0.207337 -0.109427
C62   C     C_R   0.715540 0.722254 0.184800 -0.125435
C63   C     C_R   0.739759 0.635771 0.246588 -0.084031
C64   C     C_R   0.223164 0.371835 0.677077 0.089717
C65   C     C_R   0.225182 0.416895 0.764495 -0.088126
C66   C     C_R   0.271954 0.369611 0.848587 -0.117299
C67   C     C_R   0.157817 0.414982 0.593197 0.121857
C68   C     C_R   0.318422 0.278065 0.846293 -0.114061
C69   C     C_R   0.314158 0.231226 0.760803 -0.129386
C70   C     C_R   0.263630 0.276036 0.677570 -0.071799
C71   C     C_3   0.984787 0.296184 0.663944 -0.283398
C72   C     C_3   0.923660 0.215235 0.602315 -0.455167
C73   C     C_3   0.979439 0.536204 0.270824 -0.278897
C74   C     C_3   0.015470 0.430732 0.257151 -0.446270
C75   C     C_R   0.840027 0.561122 0.396155 0.131910
C76   C     C_R   0.145732 0.528780 0.447208 0.106380
Cu1   Cu    Cu3+1 0.615220 0.507680 0.492970 0.944711
Cu2   Cu    Cu3+1 0.384780 0.492320 0.507030 0.940339
H1    H     H_    0.353295 0.811315 0.519782 0.143627
H2    H     H_    0.182460 0.793965 0.856601 0.100341
H3    H     H_    0.389553 0.830099 0.822530 0.098607
H4    H     H_    0.517110 0.711081 0.897578 0.098059
H5    H     H_    0.825285 0.973825 0.632526 0.144863
H6    H     H_    0.712876 0.898267 0.707462 0.150933
H7    H     H_    0.848716 0.854107 0.701914 0.129751
H8    H     H_    0.715862 0.750786 0.608390 0.176359
H9    H     H_    0.811603 0.832511 0.525409 0.135024
H10   H     H_    0.272997 0.096969 0.295327 0.153440
H11   H     H_    0.152628 0.036436 0.369848 0.136663
H12   H     H_    0.642346 0.187377 0.483494 0.123785
H13   H     H_    0.146966 0.157787 0.296649 0.129732
H14   H     H_    0.186070 0.176430 0.475872 0.125044
H15   H     H_    0.282682 0.252965 0.390025 0.179215
H16   H     H_    0.298069 0.862830 0.669469 0.152047
H17   H     H_    0.278191 0.990773 0.697817 0.144379
H18   H     H_    0.157121 0.890088 0.686909 0.127773
H19   H     H_    0.164097 0.011018 0.543587 0.140382
H20   H     H_    0.198170 0.893197 0.511019 0.120708
H21   H     H_    0.702320 0.018003 0.297877 0.156654
H22   H     H_    0.694491 0.146751 0.329828 0.157158
H23   H     H_    0.755212 0.540926 0.014134 0.092861
H24   H     H_    0.830265 0.111818 0.306512 0.120355
H25   H     H_    0.792014 0.107470 0.486207 0.126057
H26   H     H_    0.828308 0.992442 0.449618 0.137467
H27   H     H_    0.897450 0.558133 0.711543 0.089901
H28   H     H_    0.844789 0.486602 0.877907 0.106854
H29   H     H_    0.718199 0.314503 0.909520 0.144477
H30   H     H_    0.642531 0.217711 0.773942 0.101728
H31   H     H_    0.704287 0.282463 0.609116 0.116599
H32   H     H_    0.154018 0.730646 0.468101 0.081829
H33   H     H_    0.231274 0.885751 0.354187 0.106482
H34   H     H_    0.884975 0.425222 0.090596 0.104773
H35   H     H_    0.318423 0.863472 0.201726 0.108656
H36   H     H_    0.322574 0.686214 0.157586 0.128790
H37   H     H_    0.238034 0.531897 0.264191 0.118966
H38   H     H_    0.900013 0.762797 0.415638 0.078349
H39   H     H_    0.860212 0.914923 0.305257 0.102791
H40   H     H_    0.739827 0.890241 0.158470 0.099956
H41   H     H_    0.668261 0.710975 0.118065 0.109178
H42   H     H_    0.714888 0.558567 0.224222 0.130605
H43   H     H_    0.188798 0.487564 0.767687 0.108070
H44   H     H_    0.272242 0.403630 0.915717 0.117464
H45   H     H_    0.810216 0.243551 0.159011 0.099999
H46   H     H_    0.355625 0.242292 0.911222 0.101882
H47   H     H_    0.346960 0.158530 0.759829 0.097526
H48   H     H_    0.251303 0.233339 0.615537 0.118448
H49   H     H_    0.871502 0.252085 0.544919 0.149950
H50   H     H_    0.986715 0.177900 0.566927 0.136853
H51   H     H_    0.867834 0.154395 0.648860 0.129389
H52   H     H_    0.046825 0.255088 0.707299 0.141335
H53   H     H_    0.932170 0.312593 0.721870 0.160640
H54   H     H_    0.082445 0.409164 0.309188 0.152017
H55   H     H_    0.940910 0.367633 0.267092 0.153317
H56   H     H_    0.604051 0.175851 0.144093 0.101437
H57   H     H_    0.049412 0.433970 0.183263 0.115455
H58   H     H_    0.904771 0.541334 0.222598 0.135745
H59   H     H_    0.041273 0.603837 0.241945 0.150869
H60   H     H_    0.474274 0.288385 0.058959 0.094295
H61   H     H_    0.230742 0.519578 0.045463 0.091641
H62   H     H_    0.103810 0.638611 0.968020 0.098095
N1    N     N_R   0.788370 0.519230 0.482390 -0.255032
N2    N     N_R   0.211630 0.480770 0.517610 -0.254116
O1    O     O_R   0.581500 0.354430 0.495010 -0.514756
O2    O     O_R   0.418500 0.645570 0.504990 -0.495383
O3    O     O_R   0.386890 0.341450 0.506880 -0.518457
O4    O     O_R   0.613110 0.658550 0.493120 -0.501369
O5    O     O_R   0.611060 0.507430 0.631070 -0.495225
O6    O     O_R   0.388940 0.492570 0.368930 -0.510886
O7    O     O_R   0.416450 0.494450 0.642940 -0.487110
O8    O     O_R   0.583550 0.505550 0.357060 -0.493744

loop_
_geom_bond_atom_site_label_1
_geom_bond_atom_site_label_2
_ccdc_geom_bond_type
C15   C18   A    
C66   C68   A    
C54   H35   S    
C5    O5    A    
C74   H54   S    
C74   H55   S    
C45   C71   S    
C73   C74   S    
C1    O3    A    
C42   H25   S    
C68   H46   S    
C72   H51   S    
C57   H37   S    
C41   H17   S    
Cu1   Cu2   S    
C10   C22   S    
C26   C27   A    
C29   C30   A    
C43   H22   S    
C72   H50   S    
C14   C21   A    
C37   H7    S    
C36   C37   S    
C43   H21   S    
C19   C36   S    
Cu2   N2    S    
C40   H20   S    
C30   C31   A    
C48   H29   S    
C46   H27   S    
C38   H14   S    
C5    O7    A    
C24   H23   S    
C12   O4    A    
C9    C13   S    
C17   C42   S    
C75   N1    A    
C25   H34   S    
C16   C34   A    
C54   C55   A    
C41   H16   S    
C2    C44   S    
C59   H38   S    
C45   C67   A    
C66   H44   S    
C37   H6    S    
C1    C15   S    
C64   C70   A    
C9    C10   D    
Cu1   O5    S    
Cu2   O3    S    
C9    C29   S    
C70   H48   S    
C69   H47   S    
C59   C60   A    
C56   C75   A    
C22   C28   A    
C61   C62   A    
C39   H10   S    
C56   C73   S    
C39   H13   S    
C35   H4    S    
C44   C46   A    
C58   C75   S    
C49   H30   S    
C4    C45   A    
C36   H9    S    
C15   C20   A    
C72   H49   S    
C51   C52   A    
C64   C67   S    
C28   H60   S    
C24   C25   A    
C40   H19   S    
C68   C69   A    
C21   C34   A    
C36   H8    S    
C58   C59   A    
C53   C54   A    
C20   H12   S    
C50   H31   S    
C12   O2    A    
C60   C61   A    
C6    O8    A    
C2    C4    A    
Cu1   O1    S    
C62   C63   A    
C1    O1    A    
Cu2   O2    S    
C32   H2    S    
C6    O6    A    
C3    C56   A    
C47   C48   A    
C20   C23   A    
C52   H32   S    
C47   H28   S    
C74   H57   S    
C21   H1    S    
C60   H39   S    
C17   C23   A    
C51   C76   S    
C3    C76   A    
C62   H41   S    
C16   C40   S    
C51   C57   A    
C48   C49   A    
C12   C14   S    
C65   C66   A    
C65   H43   S    
C55   C57   A    
C22   C24   A    
C5    C8    S    
C26   H45   S    
C17   C19   A    
C3    C4    A    
C52   C53   A    
C44   C50   A    
C58   C63   A    
C46   C47   A    
C40   C41   S    
C23   C34   A    
C30   H61   S    
C61   H40   S    
C27   H56   S    
C14   C19   A    
C31   C32   A    
C42   H26   S    
Cu1   O8    S    
C73   H58   S    
C6    C7    S    
C55   H36   S    
Cu2   O6    S    
C29   C35   A    
C64   C65   A    
C25   C26   A    
C43   H24   S    
C71   C72   S    
C32   C33   A    
C71   H52   S    
C63   H42   S    
C53   H33   S    
C38   C39   S    
C73   H59   S    
C8    C11   T    
C38   H15   S    
C33   C35   A    
C18   C38   S    
C69   C70   A    
Cu1   N1    S    
C10   C11   S    
C71   H53   S    
C41   H18   S    
C7    C13   T    
C16   C18   A    
C49   C50   A    
C42   C43   S    
C27   C28   A    
C2    N1    A    
C37   H5    S    
C31   H62   S    
C67   N2    A    
C33   H3    S    
Cu1   O4    S    
C39   H11   S    
Cu2   O7    S    
C76   N2    A    
