data_mof_unit_pretest_1534.cif
_audit_creation_date              2012-12-10T19:37:37-0500
_audit_creation_method            fapswitch 2.2
_symmetry_space_group_name_H-M    P1
_symmetry_Int_Tables_number       1
_space_group_crystal_system       triclinic
_cell_length_a                    13.894721
_cell_length_b                    15.843816
_cell_length_c                    17.054942
_cell_angle_alpha                 95.991346
_cell_angle_beta                  88.934467
_cell_angle_gamma                 83.283562
_cell_volume                      3706.62818372

loop_
_atom_site_label
_atom_site_type_symbol
_atom_type_description
_atom_site_fract_x
_atom_site_fract_y
_atom_site_fract_z
_atom_type_partial_charge
C1    C     C_R   0.500452 0.510421 0.651653 0.876177
C2    C     C_R   0.499548 0.489579 0.348347 0.876178
C3    C     C_R   0.517696 0.591973 0.867404 -0.221162
C4    C     C_R   0.482303 0.408027 0.132596 -0.221162
C5    C     C_R   0.525862 0.587891 0.785479 0.350344
C6    C     C_R   0.474137 0.412109 0.214521 0.350345
C7    C     C_R   0.450493 0.249754 0.537137 0.542327
C8    C     C_R   0.549506 0.750246 0.462863 0.542326
C9    C     C_R   0.454391 0.160576 0.534316 -0.271013
C10   C     C_R   0.545608 0.839424 0.465684 -0.271014
C11   C     C_R   0.521102 0.106972 0.483210 0.324689
C12   C     C_R   0.478898 0.893028 0.516790 0.324689
C13   C     C_R   0.582576 0.146233 0.435703 -0.271366
C14   C     C_R   0.417424 0.853766 0.564298 -0.271366
C15   C     C_R   0.576792 0.236113 0.440067 0.039815
C16   C     C_R   0.423209 0.763887 0.559933 0.039816
C17   C     C_R   0.316352 0.513129 0.500723 0.833295
C18   C     C_R   0.683648 0.486871 0.499277 0.833296
C19   C     C_1   0.786818 0.479644 0.498770 -0.100060
C20   C     C_1   0.213182 0.520355 0.501229 -0.100059
C21   C     C_2   0.977455 0.465017 0.497768 -0.129981
C22   C     C_2   0.022545 0.534983 0.502232 -0.129981
C23   C     C_1   0.126247 0.527301 0.501710 0.039895
C24   C     C_1   0.873753 0.472699 0.498290 0.039895
C25   C     C_R   0.497511 0.516563 0.738407 -0.199232
C26   C     C_R   0.502489 0.483436 0.261593 -0.199232
C27   C     C_R   0.462229 0.450671 0.775258 -0.278593
C28   C     C_R   0.537771 0.549328 0.224741 -0.278593
C29   C     C_R   0.454245 0.455018 0.857106 0.390814
C30   C     C_R   0.545755 0.544981 0.142893 0.390814
C31   C     C_R   0.483841 0.525707 0.903620 0.239033
C32   C     C_R   0.516158 0.474292 0.096380 0.239033
Cu1   Cu    Cu3+1 0.495370 0.585120 0.503830 1.042807
Cu2   Cu    Cu3+1 0.504630 0.414880 0.496170 1.042807
H1    H     H_    0.981897 0.598281 0.506286 0.177285
H2    H     H_    0.018103 0.401718 0.493714 0.177285
H3    H     H_    0.561299 0.603765 0.259537 0.251042
H4    H     H_    0.438701 0.396235 0.740463 0.251042
H5    H     H_    0.540099 0.646261 0.903470 0.230055
H6    H     H_    0.459900 0.353739 0.096530 0.230055
H7    H     H_    0.594919 0.866102 0.427861 0.200572
H8    H     H_    0.405080 0.133898 0.572138 0.200572
H9    H     H_    0.635001 0.107346 0.395323 0.177019
H10   H     H_    0.365001 0.892654 0.604678 0.177019
H11   H     H_    0.624715 0.265042 0.402969 0.161107
H12   H     H_    0.375286 0.734958 0.597032 0.161107
N1    N     N_2   0.479975 0.532583 0.986800 -0.141349
N2    N     N_2   0.520025 0.467417 0.013200 -0.141349
N3    N     N_R   0.511590 0.287020 0.490400 -0.202598
N4    N     N_R   0.488410 0.712980 0.509600 -0.202598
N5    N     N_2   0.528610 0.015047 0.477737 -0.203071
N6    N     N_2   0.471390 0.984953 0.522263 -0.203071
O1    O     O_R   0.495670 0.579790 0.617520 -0.544226
O2    O     O_R   0.504330 0.420210 0.382480 -0.544226
O3    O     O_R   0.503490 0.436020 0.611040 -0.557029
O4    O     O_R   0.496510 0.563980 0.388960 -0.557029
O5    O     O_R   0.357690 0.582040 0.503680 -0.603120
O6    O     O_R   0.642310 0.417960 0.496320 -0.603120
O7    O     O_R   0.365510 0.438280 0.497200 -0.515712
O8    O     O_R   0.634490 0.561720 0.502800 -0.515713
Cl1   Cl    Cl    0.597745 0.626902 0.101197 -0.511661
Cl2   Cl    Cl    0.402255 0.373097 0.898803 -0.511661
Cl3   Cl    Cl    0.576297 0.672010 0.745915 -0.543215
Cl4   Cl    Cl    0.423702 0.327990 0.254086 -0.543215
Cl5   Cl    Cl    0.636090 0.689579 0.397209 -0.582890
Cl6   Cl    Cl    0.363909 0.310421 0.602790 -0.582890

loop_
_geom_bond_atom_site_label_1
_geom_bond_atom_site_label_2
_ccdc_geom_bond_type
C17   O5    A    
C3    C31   A    
C1    C25   S    
C4    H6    S    
Cu1   O5    S    
C27   C29   A    
C9    C11   A    
C26   C28   A    
N1    N2    D    
C20   C23   T    
Cu1   O4    S    
C28   C30   A    
C19   C24   T    
C1    O3    A    
C3    H5    S    
C8    Cl5   S    
C29   C31   A    
C21   H2    S    
C2    O4    A    
C21   C22   D    
C10   H7    S    
C30   C32   A    
C22   H1    S    
C32   N2    S    
C16   H12   S    
C7    N3    A    
C9    H8    S    
C6    C26   A    
C10   C12   A    
C28   H3    S    
C17   O7    A    
C5    C25   A    
C11   N5    S    
C14   H10   S    
C12   N6    S    
C12   C14   A    
Cu2   O2    S    
Cu1   O8    S    
C7    C9    A    
C15   N3    A    
C13   C15   A    
Cu1   O1    S    
Cu2   O7    S    
C14   C16   A    
C30   Cl1   S    
C11   C13   A    
C25   C27   A    
C15   H11   S    
C27   H4    S    
C6    Cl4   S    
C4    C32   A    
C8    N4    A    
C13   H9    S    
C17   C20   S    
Cu1   Cu2   S    
C5    Cl3   S    
C2    C26   S    
C4    C6    A    
C2    O2    A    
C21   C24   S    
C18   O8    A    
Cu2   O6    S    
C1    O1    A    
C22   C23   S    
C18   C19   S    
Cu2   O3    S    
C31   N1    S    
C3    C5    A    
Cu1   N4    S    
C29   Cl2   S    
C18   O6    A    
C8    C10   A    
N5    N6    D    
C16   N4    A    
Cu2   N3    S    
C7    Cl6   S    
