data_mof_unit_pretest_62.cif
_audit_creation_date              2012-12-10T16:57:48-0500
_audit_creation_method            fapswitch 2.2
_symmetry_space_group_name_H-M    P1
_symmetry_Int_Tables_number       1
_space_group_crystal_system       triclinic
_cell_length_a                    7.737909
_cell_length_b                    8.633986
_cell_length_c                    19.179634
_cell_angle_alpha                 91.30596
_cell_angle_beta                  85.089063
_cell_angle_gamma                 93.613731
_cell_volume                      1273.93472523

loop_
_atom_site_label
_atom_site_type_symbol
_atom_type_description
_atom_site_fract_x
_atom_site_fract_y
_atom_site_fract_z
_atom_type_partial_charge
C1    C     C_R   0.545871 0.794215 0.498830 0.912867
C2    C     C_R   0.651751 0.586129 0.177739 0.368367
C3    C     C_R   0.500084 0.480998 0.854691 -0.089674
C4    C     C_R   0.509187 0.516529 0.145258 -0.089573
C5    C     C_R   0.647006 0.538350 0.813640 -0.136715
C6    C     C_R   0.364025 0.451749 0.185258 -0.136093
C7    C     C_R   0.646295 0.539143 0.741657 -0.204559
C8    C     C_R   0.360587 0.452684 0.257409 -0.199728
C9    C     C_R   0.498044 0.483586 0.709881 -0.204039
C10   C     C_R   0.502707 0.517844 0.290362 -0.194381
C11   C     C_R   0.509339 0.507047 0.069763 0.367895
C12   C     C_R   0.455158 0.205317 0.502670 0.912979
C13   C     C_R   0.504084 0.489104 0.929925 0.368337
C14   C     C_3   0.878857 0.030618 0.477296 -0.661519
C15   C     C_3   0.344079 0.969686 0.635182 -0.649011
C16   C     C_2   0.569931 0.955786 0.491180 -0.031883
C17   C     C_2   0.438576 0.044695 0.516384 -0.040061
C18   C     C_R   0.499539 0.494482 0.634369 0.915218
C19   C     C_R   0.500471 0.505912 0.365726 0.930320
C20   C     C_R   0.350043 0.421373 0.750810 0.316825
C21   C     C_R   0.647464 0.588976 0.250737 0.324679
C22   C     C_R   0.350774 0.421790 0.823655 0.367667
Cl1   Cl    Cl    0.164448 0.338232 0.712492 -0.567683
Cl2   Cl    Cl    0.821722 0.686770 0.291302 -0.552804
Cl3   Cl    Cl    0.160214 0.357428 0.875369 -0.492687
Cl4   Cl    Cl    0.841003 0.660568 0.128009 -0.482588
H1    H     H_    0.762320 0.583451 0.837494 0.207547
H2    H     H_    0.864834 0.099995 0.526740 0.246472
H3    H     H_    0.185662 0.046618 0.563305 0.249433
H4    H     H_    0.228635 0.923185 0.668354 0.253447
H5    H     H_    0.390146 0.083317 0.657443 0.249792
H6    H     H_    0.447722 0.886657 0.636190 0.214966
H7    H     H_    0.253410 0.399254 0.160477 0.204270
H8    H     H_    0.760604 0.586511 0.710847 0.194097
H9    H     H_    0.248604 0.398839 0.287446 0.189221
H10   H     H_    0.014923 0.383637 0.446960 0.194385
H11   H     H_    0.985294 0.617096 0.552783 0.194907
H12   H     H_    0.727034 0.953603 0.398203 0.264791
H13   H     H_    0.977908 0.091776 0.440737 0.223569
H14   H     H_    0.926195 0.915769 0.488442 0.238163
N1    N     N_R   0.563550 0.621889 0.961074 -0.131944
N2    N     N_R   0.450166 0.374150 0.038549 -0.132591
N3    N     N_R   0.565398 0.630935 0.030105 -0.077456
N4    N     N_R   0.448127 0.365127 0.969519 -0.079523
N5    N     N_2   0.950330 0.457950 0.481240 -0.153108
N6    N     N_2   0.049670 0.542050 0.518760 -0.150403
N7    N     N_2   0.715234 0.012884 0.445517 -0.289583
N8    N     N_2   0.297674 0.988384 0.564433 -0.306535
O1    O     O_R   0.389250 0.738570 0.504600 -0.595747
O2    O     O_R   0.610750 0.261430 0.495400 -0.592398
O3    O     O_R   0.678400 0.711620 0.492580 -0.625071
O4    O     O_R   0.321600 0.288380 0.507420 -0.636468
O5    O     O_R   0.355380 0.513500 0.607880 -0.564355
O6    O     O_R   0.644620 0.486500 0.392120 -0.565543
O7    O     O_R   0.644530 0.486550 0.595850 -0.632829
O8    O     O_R   0.355470 0.513450 0.404150 -0.628991
Zn1   Zn    Zn3+2 0.306930 0.517990 0.508030 0.992600
Zn2   Zn    Zn3+2 0.693070 0.482010 0.491970 0.992730

loop_
_geom_bond_atom_site_label_1
_geom_bond_atom_site_label_2
_ccdc_geom_bond_type
C19   O8    A    
C12   C17   S    
C2    C4    A    
C17   N8    S    
C15   H5    S    
C14   N7    S    
C1    O3    A    
C9    C20   A    
C12   O2    A    
C3    C13   S    
C6    H7    S    
C10   C19   S    
C2    C21   A    
C13   N1    A    
C14   H13   S    
H10   N5    S    
C2    Cl4   S    
C1    C16   S    
N5    N6    D    
C4    C11   S    
C11   N3    A    
N1    N3    A    
H12   N7    S    
N2    N4    A    
C15   N8    S    
C11   N2    A    
C18   O7    A    
C19   O6    A    
C4    C6    A    
C12   O4    A    
C20   C22   A    
C5    C7    A    
C10   C21   A    
C7    H8    S    
N5    Zn2   S    
O7    Zn2   S    
O4    Zn1   S    
H3    N8    S    
C14   H14   S    
O2    Zn2   S    
C9    C18   S    
C15   H6    S    
O1    Zn1   S    
O8    Zn1   S    
C16   N7    S    
C15   H4    S    
C8    C10   A    
O6    Zn2   S    
C21   Cl2   S    
O3    Zn2   S    
C7    C9    A    
O5    Zn1   S    
C3    C22   A    
C6    C8    A    
C18   O5    A    
C14   H2    S    
H11   N6    S    
C5    H1    S    
C20   Cl1   S    
C1    O1    A    
N6    Zn1   S    
C8    H9    S    
C13   N4    A    
C16   C17   D    
C3    C5    A    
C22   Cl3   S    
