data_mof_unit_pretest_1206.cif
_audit_creation_date              2012-12-10T17:35:32-0500
_audit_creation_method            fapswitch 2.2
_symmetry_space_group_name_H-M    P1
_symmetry_Int_Tables_number       1
_space_group_crystal_system       triclinic
_cell_length_a                    10.82644
_cell_length_b                    12.400326
_cell_length_c                    13.649807
_cell_angle_alpha                 117.902434
_cell_angle_beta                  73.500969
_cell_angle_gamma                 101.717816
_cell_volume                      1547.45027805

loop_
_atom_site_label
_atom_site_type_symbol
_atom_type_description
_atom_site_fract_x
_atom_site_fract_y
_atom_site_fract_z
_atom_type_partial_charge
C1    C     C_R   0.507399 0.852626 0.287507 0.814707
C2    C     C_3   0.123659 0.991068 0.487144 -0.026229
C3    C     C_3   0.048465 0.066775 0.610562 -0.337123
C4    C     C_3   0.053363 0.857573 0.443232 -0.000845
C5    C     C_R   0.500686 0.261431 0.016250 -0.193467
C6    C     C_R   0.471262 0.224709 0.833813 -0.062510
C7    C     C_R   0.496693 0.804058 0.086459 0.496872
C8    C     C_R   0.454096 0.721402 0.985511 -0.243098
C9    C     C_R   0.429828 0.597551 0.956123 -0.193462
C10   C     C_R   0.437452 0.551023 0.029332 0.093674
C11   C     C_R   0.450714 0.633520 0.141553 0.027459
C12   C     C_R   0.740147 0.999431 0.498161 0.795445
C13   C     C_R   0.439012 0.423333 0.991407 0.065126
C14   C     C_R   0.466276 0.380841 0.061615 0.149826
C15   C     C_R   0.452173 0.457117 0.176503 -0.235694
C16   C     C_R   0.432100 0.579078 0.216979 -0.155773
C17   C     C_R   0.414982 0.335967 0.885812 0.071740
C18   C     C_R   0.511186 0.185985 0.900628 -0.202311
C19   C     C_R   0.484633 0.763062 0.170945 -0.173262
C20   C     C_R   0.710462 0.341835 0.322215 -0.324531
C21   C     C_R   0.344064 0.772411 0.664605 0.396725
C22   C     C_R   0.351315 0.704553 0.719422 -0.265209
C23   C     C_R   0.480687 0.145121 0.712732 0.842503
C24   C     C_R   0.430603 0.609854 0.664600 -0.189664
C25   C     C_R   0.488722 0.570357 0.549492 0.044553
C26   C     C_R   0.501776 0.655948 0.504656 0.229489
C27   C     C_R   0.547649 0.457062 0.482857 -0.073799
C28   C     C_R   0.644325 0.446774 0.385632 0.097748
C29   C     C_R   0.673666 0.541241 0.351926 -0.226620
C30   C     C_R   0.601333 0.642658 0.408730 -0.208197
C31   C     C_R   0.508713 0.350734 0.503757 0.283103
C32   C     C_R   0.677342 0.244197 0.350920 0.354283
C33   C     C_R   0.261732 0.993923 0.491896 0.820976
C34   C     C_3   0.969229 0.074430 0.433498 -0.020019
C35   C     C_3   0.113368 0.048397 0.405934 0.422183
C36   C     C_3   0.901722 0.050491 0.616039 -0.375259
C37   C     C_3   0.918119 0.863306 0.428809 -0.470287
C38   C     C_3   0.879133 0.997736 0.494259 0.006306
Cu1   Cu    Cu3+1 0.529690 0.098270 0.475420 1.045166
Cu2   Cu    Cu3+1 0.470310 0.901730 0.524580 0.961899
H1    H     H_    0.853509 0.986858 0.654668 0.206921
H2    H     H_    0.066532 0.038721 0.671270 0.217560
H3    H     H_    0.546493 0.096502 0.863978 0.154577
H4    H     H_    0.452669 0.421930 0.235534 0.152456
H5    H     H_    0.524721 0.229426 0.069015 0.144078
H6    H     H_    0.411025 0.537518 0.872840 0.180118
H7    H     H_    0.446302 0.750199 0.924261 0.131255
H8    H     H_    0.944027 0.044047 0.351497 0.146566
H9    H     H_    0.397795 0.623785 0.307193 0.205442
H10   H     H_    0.749957 0.534635 0.278420 0.168799
H11   H     H_    0.788253 0.335339 0.249672 0.179152
H12   H     H_    0.447563 0.568710 0.713210 0.168349
H13   H     H_    0.298223 0.727323 0.805898 0.181947
H14   H     H_    0.629170 0.710442 0.377399 0.203697
H15   H     H_    0.858606 0.139241 0.672798 0.189664
H16   H     H_    0.082608 0.165263 0.638981 0.243309
H17   H     H_    0.845751 0.802198 0.459436 0.230415
H18   H     H_    0.918144 0.827272 0.337372 0.177470
H19   H     H_    0.110610 0.795190 0.361172 0.162164
N1    N     N_R   0.574690 0.246280 0.438200 -0.214262
N2    N     N_R   0.426100 0.754320 0.561190 -0.236074
O1    O     O_R   0.537340 0.972510 0.318130 -0.509313
O2    O     O_R   0.487200 0.806530 0.359650 -0.640661
O3    O     O_R   0.707380 0.082980 0.479220 -0.542161
O4    O     O_R   0.657240 0.917000 0.520740 -0.610389
O5    O     O_R   0.512800 0.193470 0.640350 -0.554165
O6    O     O_R   0.462660 0.027490 0.681870 -0.573964
O7    O     O_R   0.342760 0.083000 0.479260 -0.503189
O8    O     O_R   0.292620 0.917020 0.520780 -0.552646
I1    I     I_    0.936209 0.270965 0.532209 -0.297654
I2    I     I_    0.028600 0.757597 0.542422 -0.332411
I3    I     I_    0.218557 0.320751 0.877972 -0.331935
O9    O     O_3   0.548386 0.924035 0.106286 -0.557191
C39   C     C_3   0.587655 0.942827 0.006295 0.065851
H20   H     H_    0.501899 0.959187 0.986994 0.156409
H21   H     H_    0.637268 0.864300 0.932090 0.153715
C40   C     C_3   0.685016 0.053510 0.022088 -0.743669
H22   H     H_    0.780619 0.030561 0.018161 0.275560
H23   H     H_    0.697779 0.079232 0.951981 0.191925
H24   H     H_    0.651903 0.132102 0.104372 0.252196
I4    I     I_    0.795345 0.097449 0.249158 -0.335669
I5    I     I_    0.328736 0.342824 0.616147 -0.273483
I6    I     I_    0.215427 0.913197 0.764551 -0.275326
I7    I     I_    0.171183 0.914332 0.224759 -0.460804
O10   O     O_3   0.193500 0.159993 0.426590 -0.530801
C41   C     C_3   0.211589 0.203846 0.343633 0.173703
H25   H     H_    0.198412 0.303388 0.388429 0.188854
H26   H     H_    0.139477 0.162173 0.289034 0.157840
C42   C     C_3   0.349016 0.188607 0.271148 -0.755638
H27   H     H_    0.389277 0.108899 0.263431 0.311377
H28   H     H_    0.348331 0.175016 0.185082 0.212881
H29   H     H_    0.413157 0.271470 0.309480 0.204732

loop_
_geom_bond_atom_site_label_1
_geom_bond_atom_site_label_2
_ccdc_geom_bond_type
C2    C35   S    
C24   H12   S    
C3    H2    S    
O9    C39   S    
C1    O1    A    
C7    C8    A    
C7    O9    S    
C40   H22   S    
C32   I4    S    
C30   H14   S    
C11   C19   A    
C29   C30   A    
Cu2   O2    S    
C39   H21   S    
C23   O5    A    
C28   C29   A    
C26   N2    A    
C15   H4    S    
C20   H11   S    
C12   O3    A    
C41   H26   S    
Cu1   N1    S    
C15   C16   A    
C34   C35   S    
C11   C16   A    
C23   O6    A    
C6    C17   A    
C21   I6    S    
C8    C9    A    
C39   C40   S    
C42   H28   S    
C9    C10   A    
C34   I1    S    
C21   N2    A    
C37   H18   S    
C33   O8    A    
C9    H6    S    
C21   C22   A    
C36   H1    S    
C1    O2    A    
C22   H13   S    
C29   H10   S    
C40   H23   S    
C6    C18   A    
C1    C19   S    
Cu2   O8    S    
C27   C31   A    
C24   C25   A    
C39   H20   S    
Cu1   Cu2   S    
C41   H25   S    
C5    C18   A    
C20   C28   A    
C25   C26   A    
O10   C41   S    
C5    H5    S    
C41   C42   S    
Cu2   N2    S    
C31   N1    A    
C2    C4    S    
Cu1   O7    S    
C37   C38   S    
Cu1   O3    S    
C3    H16   S    
C16   H9    S    
C42   H29   S    
C31   I5    S    
C5    C14   A    
C2    C33   S    
C26   C30   A    
C7    C19   A    
Cu2   O4    S    
Cu1   O5    S    
C22   C24   A    
C34   H8    S    
C32   N1    A    
Cu2   O6    S    
C20   C32   A    
C40   H24   S    
Cu1   O1    S    
C34   C38   S    
C10   C13   A    
C35   I7    S    
C25   C27   A    
C12   O4    A    
C13   C17   A    
C36   C38   S    
C2    C3    S    
C8    H7    S    
C36   H15   S    
C18   H3    S    
C35   O10   S    
C3    C36   S    
C6    C23   S    
C4    H19   S    
C12   C38   S    
C10   C11   A    
C4    C37   S    
C17   I3    S    
C27   C28   A    
C14   C15   A    
C42   H27   S    
C13   C14   A    
C4    I2    S    
C37   H17   S    
C33   O7    A    
