data_mof_unit_pretest_1516.cif
_audit_creation_date              2012-12-10T17:51:38-0500
_audit_creation_method            fapswitch 2.2
_symmetry_space_group_name_H-M    P1
_symmetry_Int_Tables_number       1
_space_group_crystal_system       triclinic
_cell_length_a                    18.614951
_cell_length_b                    18.716841
_cell_length_c                    18.773775
_cell_angle_alpha                 109.300871
_cell_angle_beta                  109.417911
_cell_angle_gamma                 109.322793
_cell_volume                      5058.27194877

loop_
_atom_site_label
_atom_site_type_symbol
_atom_type_description
_atom_site_fract_x
_atom_site_fract_y
_atom_site_fract_z
_atom_type_partial_charge
C1    C     C_R   0.620315 0.120280 0.000082 0.853574
C2    C     C_R   0.511339 0.764965 0.687242 -0.179807
C3    C     C_R   0.509990 0.827604 0.750287 -0.281805
C4    C     C_R   0.497499 0.117614 0.119409 0.924876
C5    C     C_R   0.499116 0.813719 0.815478 -0.055465
C6    C     C_R   0.321600 0.821044 0.078896 -0.186278
C7    C     C_R   0.257060 0.757624 0.078854 -0.180865
C8    C     C_R   0.186508 0.685996 0.999664 -0.009171
C9    C     C_R   0.179204 0.677712 0.920485 -0.189286
C10   C     C_R   0.242398 0.742492 0.920508 -0.163754
C11   C     C_R   0.313549 0.813499 0.999728 -0.001611
C12   C     C_R   0.822811 0.243017 0.001059 -0.190301
C13   C     C_R   0.620375 0.502605 0.622755 0.889789
C14   C     C_R   0.502579 0.383866 0.385527 0.929996
C15   C     C_R   0.379681 0.503613 0.383305 0.862237
C16   C     C_R   0.379706 0.879697 0.999878 0.878462
C17   C     C_R   0.499845 0.622601 0.622655 0.890754
C18   C     C_R   0.879369 0.500487 0.880614 0.927646
C19   C     C_R   0.879638 0.379885 0.000058 0.881608
C20   C     C_R   0.119928 0.498882 0.119350 0.858161
C21   C     C_R   0.120221 0.620131 0.999769 0.856871
C22   C     C_R   0.764128 0.579579 0.752458 -0.175265
C23   C     C_R   0.813767 0.314033 0.000517 -0.008340
C24   C     C_R   0.826755 0.578953 0.816916 -0.268677
C25   C     C_R   0.812645 0.500164 0.815021 -0.107542
C26   C     C_R   0.736310 0.421209 0.749316 0.480482
C27   C     C_R   0.671642 0.423104 0.687159 -0.290638
C28   C     C_R   0.499688 0.880192 0.880772 0.930081
C29   C     C_R   0.686544 0.501788 0.688253 -0.076678
C30   C     C_R   0.323422 0.502779 0.245430 -0.181792
C31   C     C_R   0.258360 0.499349 0.179186 -0.186041
C32   C     C_R   0.185188 0.497833 0.185295 -0.009227
C33   C     C_R   0.175436 0.497718 0.255919 -0.182989
C34   C     C_R   0.741519 0.321754 0.999958 -0.166972
C35   C     C_R   0.239140 0.498416 0.320772 -0.183878
C36   C     C_R   0.313301 0.501941 0.315723 -0.009762
C37   C     C_2   0.495009 0.243560 0.321492 -0.157181
C38   C     C_2   0.511225 0.320294 0.325378 -0.333979
C39   C     C_2   0.506285 0.182051 0.259931 -0.157325
C40   C     C_2   0.488959 0.177759 0.183087 -0.330972
C41   C     C_R   0.759532 0.179646 0.002342 -0.184628
C42   C     C_3   0.709181 0.280369 0.676088 0.095026
C43   C     C_3   0.620440 0.198931 0.633234 -0.336295
C44   C     C_3   0.604083 0.126498 0.551430 -0.973592
C45   C     C_R   0.676894 0.257014 0.998539 -0.185257
C46   C     C_R   0.686554 0.186616 0.000375 -0.007221
C47   C     C_R   0.487868 0.736962 0.818109 0.449657
C48   C     C_R   0.487295 0.673195 0.753047 -0.298583
C49   C     C_R   0.499579 0.687949 0.688665 -0.058485
H1    H     H_    0.477084 0.227406 0.365844 0.163054
H2    H     H_    0.886656 0.639374 0.867428 0.162292
H3    H     H_    0.538957 0.340564 0.288238 0.156802
H4    H     H_    0.610574 0.363453 0.637770 0.154574
H5    H     H_    0.380769 0.504834 0.241444 0.144024
H6    H     H_    0.265835 0.499912 0.124506 0.144690
H7    H     H_    0.118393 0.496294 0.260234 0.144103
H8    H     H_    0.231559 0.497840 0.375404 0.145023
H9    H     H_    0.525123 0.138048 0.276174 0.161697
H10   H     H_    0.460482 0.214598 0.162896 0.157317
H11   H     H_    0.766541 0.124712 0.003350 0.145027
H12   H     H_    0.478519 0.612999 0.753115 0.147360
H13   H     H_    0.879180 0.237525 0.001782 0.144145
H14   H     H_    0.734640 0.376785 0.999088 0.148392
H15   H     H_    0.620315 0.262306 0.997354 0.144445
H16   H     H_    0.761722 0.263411 0.695494 0.169077
H17   H     H_    0.713425 0.301218 0.627602 0.115471
H18   H     H_    0.618609 0.175189 0.679967 0.236660
H19   H     H_    0.567274 0.215355 0.615642 0.217032
H20   H     H_    0.603497 0.148141 0.502904 0.262481
H21   H     H_    0.539527 0.068291 0.522307 0.268997
H22   H     H_    0.655848 0.108079 0.567593 0.266394
H23   H     H_    0.520253 0.775903 0.636845 0.159496
H24   H     H_    0.468635 0.667740 0.874676 0.330414
H25   H     H_    0.518706 0.887362 0.749178 0.161216
H26   H     H_    0.376796 0.876431 0.140179 0.139985
H27   H     H_    0.262620 0.763580 0.140122 0.144793
H28   H     H_    0.124131 0.622204 0.859216 0.143483
H29   H     H_    0.236732 0.736754 0.859271 0.147119
H30   H     H_    0.775274 0.640665 0.753614 0.160573
O1    O     O_R   0.539900 0.091920 0.948590 -0.625898
O2    O     O_R   0.908310 0.551980 0.960300 -0.625702
O3    O     O_R   0.908280 0.357000 0.948510 -0.616304
O4    O     O_R   0.643340 0.091290 0.051390 -0.625702
O5    O     O_R   0.908310 0.459790 0.051330 -0.626938
O6    O     O_R   0.091510 0.448020 0.039520 -0.624216
O7    O     O_R   0.091540 0.550800 0.142340 -0.623048
O8    O     O_R   0.091520 0.540220 0.948490 -0.625845
O9    O     O_R   0.091540 0.643000 0.051310 -0.624066
O10   O     O_R   0.448270 0.091350 0.039630 -0.624287
O11   O     O_R   0.551710 0.090720 0.142430 -0.619742
O12   O     O_R   0.643360 0.554400 0.594170 -0.625216
O13   O     O_R   0.356660 0.908710 0.948610 -0.628258
O14   O     O_R   0.460100 0.908080 0.051410 -0.611216
O15   O     O_R   0.448290 0.909280 0.857570 -0.636447
O16   O     O_R   0.551730 0.908650 0.960370 -0.583388
O17   O     O_R   0.539910 0.450960 0.594180 -0.627725
O18   O     O_3   0.722248 0.345044 0.752539 -0.650671
O19   O     O_3   0.475915 0.725399 0.883151 -0.770597
O20   O     O_R   0.448310 0.360490 0.412110 -0.615761
O21   O     O_R   0.551750 0.463920 0.412090 -0.623934
O22   O     O_R   0.356690 0.452080 0.412090 -0.619978
O23   O     O_R   0.460130 0.555510 0.412070 -0.624876
O24   O     O_R   0.448290 0.542560 0.594160 -0.623579
O25   O     O_R   0.551730 0.645990 0.594150 -0.626576
O26   O     O_R   0.908290 0.449200 0.857490 -0.614165
Zn1   Zn    Zn3+2 0.430930 0.000420 0.931360 0.956238
Zn2   Zn    Zn3+2 0.569070 0.999580 0.068640 0.982202
Zn3   Zn    Zn3+2 0.430950 0.434180 0.503140 0.953405
Zn4   Zn    Zn3+2 0.569090 0.572300 0.503120 0.952154
Zn5   Zn    Zn3+2 0.999890 0.431370 0.931260 0.955631
Zn6   Zn    Zn3+2 0.999930 0.568630 0.068560 0.958812

loop_
_geom_bond_atom_site_label_1
_geom_bond_atom_site_label_2
_ccdc_geom_bond_type
O26   Zn5   S    
C21   O8    A    
C22   C29   A    
C27   C29   A    
C35   C36   A    
C10   H29   S    
C7    C8    A    
O8    Zn5   S    
C45   C46   A    
O20   Zn3   S    
C30   H5    S    
C12   C23   A    
C16   O14   A    
C12   C41   A    
C47   O19   S    
C28   O16   A    
O3    Zn5   S    
C13   C29   S    
C17   O25   A    
C22   H30   S    
C30   C31   A    
C1    C46   S    
C38   H3    S    
O1    Zn1   S    
C18   O2    A    
C44   H22   S    
C28   O15   A    
C3    H25   S    
O22   Zn3   S    
O9    Zn6   S    
O2    Zn6   S    
C8    C9    A    
C20   O7    A    
O10   Zn1   S    
C42   H16   S    
C41   C46   A    
C44   H21   S    
O24   Zn3   S    
C19   O3    A    
C9    C10   A    
C33   H7    S    
O17   Zn3   S    
C21   O9    A    
O21   Zn4   S    
C40   H10   S    
C13   O12   A    
C18   C25   S    
C2    H23   S    
C4    O11   A    
H24   O19   S    
O5    Zn6   S    
C13   O17   A    
C5    C47   A    
C4    C40   S    
C14   O20   A    
C24   C25   A    
O6    Zn5   S    
C42   O18   S    
C17   C49   S    
C39   C40   D    
C43   H19   S    
C25   C26   A    
C39   H9    S    
C19   C23   S    
C43   C44   S    
C37   C38   D    
C2    C49   A    
C14   C38   S    
C5    C28   S    
C12   H13   S    
C11   C16   S    
C47   C48   A    
C23   C34   A    
C20   O6    A    
C8    C21   S    
C26   C27   A    
C44   H20   S    
C34   C45   A    
C9    H28   S    
C15   O22   A    
C7    H27   S    
O16   Zn2   S    
O13   Zn1   S    
C48   C49   A    
C16   O13   A    
C22   C24   A    
C42   C43   S    
C19   O5    A    
C15   C36   S    
C6    C11   A    
C4    O10   A    
C20   C32   S    
O15   Zn1   S    
C31   C32   A    
C41   H11   S    
C3    C5    A    
O11   Zn2   S    
C27   H4    S    
C14   O21   A    
C6    C7    A    
C1    O4    A    
C45   H15   S    
C30   C36   A    
C35   H8    S    
C32   C33   A    
O12   Zn4   S    
C2    C3    A    
C17   O24   A    
C18   O26   A    
C37   C39   S    
O14   Zn2   S    
C37   H1    S    
C48   H12   S    
O25   Zn4   S    
C24   H2    S    
C34   H14   S    
C33   C35   A    
O4    Zn2   S    
O7    Zn6   S    
C15   O23   A    
C10   C11   A    
C26   O18   S    
C43   H18   S    
C42   H17   S    
C1    O1    A    
O23   Zn4   S    
C31   H6    S    
C6    H26   S    
