data_mof_unit_pretest_695.cif
_audit_creation_date              2012-12-10T20:27:13-0500
_audit_creation_method            fapswitch 2.2
_symmetry_space_group_name_H-M    P1
_symmetry_Int_Tables_number       1
_space_group_crystal_system       triclinic
_cell_length_a                    10.735545
_cell_length_b                    10.675987
_cell_length_c                    9.886563
_cell_angle_alpha                 90.003097
_cell_angle_beta                  103.704597
_cell_angle_gamma                 90.300467
_cell_volume                      1100.84805563

loop_
_atom_site_label
_atom_site_type_symbol
_atom_type_description
_atom_site_fract_x
_atom_site_fract_y
_atom_site_fract_z
_atom_type_partial_charge
C1    C     C_R   0.499514 0.260288 0.499846 0.914315
C2    C     C_R   0.601921 0.544901 0.097944 -0.113552
C3    C     C_R   0.601801 0.545148 0.954189 -0.042061
C4    C     C_R   0.258962 0.504866 0.442081 0.964620
C5    C     C_R   0.393659 0.462596 0.902283 -0.014321
C6    C     C_3   0.327589 0.336714 0.885072 -0.230797
C7    C     C_3   0.320510 0.346298 0.038438 0.151194
C8    C     C_R   0.498749 0.739721 0.499878 0.859827
C9    C     C_R   0.741121 0.505184 0.557867 0.958456
C10   C     C_2   0.122448 0.523545 0.409262 -0.326512
C11   C     C_2   0.068480 0.559472 0.510849 -0.135516
C12   C     C_R   0.491870 0.128405 0.499020 -0.120042
C13   C     C_2   0.877730 0.525537 0.590248 -0.313562
C14   C     C_2   0.931812 0.556973 0.486929 -0.166409
C15   C     C_R   0.540431 0.064010 0.622231 0.090932
C16   C     C_2   0.773644 0.118030 0.652879 0.423718
C17   C     C_2   0.200224 0.341853 0.779275 0.587516
C18   C     C_2   0.413517 0.230133 0.864916 0.460129
C19   C     C_3   0.137293 0.253583 0.076932 0.110175
C20   C     C_3   0.994598 0.274112 0.062431 -0.775910
C21   C     C_2   0.659513 0.876787 0.865062 0.467276
C22   C     C_R   0.429303 0.064359 0.378196 -0.204948
C23   C     C_R   0.428418 0.934820 0.378381 -0.196567
C24   C     C_R   0.489073 0.871415 0.499896 -0.143344
C25   C     C_R   0.536068 0.936180 0.623751 0.237897
C26   C     C_3   0.664934 0.926420 0.723788 -0.329728
C27   C     C_3   0.670989 0.069134 0.720025 -0.305673
C28   C     C_R   0.392166 0.466691 0.044083 0.212201
H1    H     H_    0.876030 0.568122 0.380434 0.173291
H2    H     H_    0.736676 0.877162 0.678334 0.112707
H3    H     H_    0.670220 0.115653 0.820457 0.182792
H4    H     H_    0.783605 0.079848 0.554199 0.080294
H5    H     H_    0.129734 0.410677 0.791048 0.060118
H6    H     H_    0.514301 0.247128 0.871188 0.057604
H7    H     H_    0.179636 0.217167 0.183192 0.147328
H8    H     H_    0.148350 0.182266 0.998228 0.176886
H9    H     H_    0.951062 0.315852 0.959290 0.281178
H10   H     H_    0.946551 0.183218 0.071754 0.211754
H11   H     H_    0.979208 0.338112 0.145316 0.236374
H12   H     H_    0.685103 0.579591 0.172993 0.138447
H13   H     H_    0.746315 0.876183 0.947808 0.039239
H14   H     H_    0.684794 0.580037 0.921546 0.136439
H15   H     H_    0.376972 0.275824 0.110835 0.093121
H16   H     H_    0.124612 0.578074 0.615900 0.176471
H17   H     H_    0.933604 0.514238 0.696489 0.151204
H18   H     H_    0.066037 0.506152 0.304217 0.157545
H19   H     H_    0.385684 0.113718 0.283431 0.150894
H20   H     H_    0.384768 0.884773 0.283488 0.184075
N1    N     N_R   0.499160 0.499140 0.142600 -0.133315
N2    N     N_R   0.499160 0.499180 0.856960 -0.111411
O1    O     O_R   0.500020 0.316790 0.614700 -0.613169
O2    O     O_2   0.175164 0.270497 0.679827 -0.530444
O3    O     O_2   0.372287 0.122940 0.849897 -0.528893
O4    O     O_3   0.195876 0.368623 0.057051 -0.605252
O5    O     O_2   0.559539 0.837619 0.888365 -0.527477
O6    O     O_R   0.500000 0.316760 0.385350 -0.636030
O7    O     O_R   0.317820 0.500020 0.571850 -0.614606
O8    O     O_R   0.317800 0.499980 0.342510 -0.587876
O9    O     O_R   0.500000 0.683240 0.614650 -0.582355
O10   O     O_R   0.499980 0.683210 0.385300 -0.619046
O11   O     O_R   0.682200 0.500020 0.657490 -0.622436
O12   O     O_R   0.682180 0.499980 0.428150 -0.627781
O13   O     O_2   0.845922 0.201409 0.708599 -0.573456
Zn1   Zn    Zn3+2 0.500010 0.500020 0.653140 0.982848
Zn2   Zn    Zn3+2 0.499990 0.499980 0.346860 0.963624

loop_
_geom_bond_atom_site_label_1
_geom_bond_atom_site_label_2
_ccdc_geom_bond_type
C4    O7    A    
C10   H18   S    
O11   Zn1   S    
C23   C24   A    
C3    H14   S    
C6    C7    S    
C16   O13   D    
C7    H15   S    
C16   H4    S    
C5    C28   A    
N2    Zn1   S    
C28   N1    A    
O8    Zn2   S    
C15   C27   S    
C19   C20   S    
C7    O4    S    
C12   C15   A    
C21   C26   S    
C9    O12   A    
C16   C27   S    
C2    C3    A    
C26   C27   S    
C20   H11   S    
C11   H16   S    
C19   H7    S    
C13   C14   D    
C8    O10   A    
C13   H17   S    
C20   H9    S    
C18   H6    S    
O9    Zn1   S    
C1    C12   S    
C17   H5    S    
C9    O11   A    
C19   O4    S    
C2    N1    A    
C3    N2    A    
O10   Zn2   S    
C26   H2    S    
C19   H8    S    
C8    O9    A    
C5    C6    S    
C6    C18   S    
C11   C14   S    
C22   H19   S    
C5    N2    A    
C15   C25   A    
C10   C11   D    
O1    Zn1   S    
C14   H1    S    
C4    C10   S    
O6    Zn2   S    
C12   C22   A    
C20   H10   S    
C24   C25   A    
C17   O2    D    
O7    Zn1   S    
C21   H13   S    
C1    O1    A    
C4    O8    A    
C21   O5    D    
C6    C17   S    
C9    C13   S    
C22   C23   A    
C23   H20   S    
O12   Zn2   S    
C8    C24   S    
C25   C26   S    
N1    Zn2   S    
C27   H3    S    
C1    O6    A    
C7    C28   S    
C2    H12   S    
C18   O3    D    
