data_mof_unit_pretest_555.cif
_audit_creation_date              2012-12-10T18:23:06-0500
_audit_creation_method            fapswitch 2.2
_symmetry_space_group_name_H-M    P1
_symmetry_Int_Tables_number       1
_space_group_crystal_system       triclinic
_cell_length_a                    14.874289
_cell_length_b                    14.165818
_cell_length_c                    10.478838
_cell_angle_alpha                 89.710291
_cell_angle_beta                  89.254803
_cell_angle_gamma                 89.862038
_cell_volume                      2207.73794794

loop_
_atom_site_label
_atom_site_type_symbol
_atom_type_description
_atom_site_fract_x
_atom_site_fract_y
_atom_site_fract_z
_atom_type_partial_charge
C1    C     C_R   0.327263 0.499893 0.500271 0.879456
C2    C     C_R   0.672719 0.499861 0.499775 0.880373
C3    C     C_R   0.953127 0.497433 0.500900 -0.017182
C4    C     C_R   0.046726 0.496893 0.501452 -0.033296
C5    C     C_R   0.907170 0.460616 0.394224 0.071053
C6    C     C_R   0.092607 0.532020 0.609024 0.109798
C7    C     C_R   0.950544 0.569478 0.714082 0.043112
C8    C     C_R   0.049501 0.425675 0.288096 0.082708
C9    C     C_R   0.044975 0.567544 0.715368 0.036825
C10   C     C_R   0.955461 0.424790 0.287952 0.038139
C11   C     C_R   0.565855 0.798477 0.433546 0.230507
C12   C     C_R   0.438435 0.201910 0.573976 0.231480
C13   C     C_R   0.434515 0.798732 0.566466 0.235815
C14   C     C_R   0.561620 0.202199 0.425864 0.238564
C15   C     C_R   0.436809 0.899349 0.573857 -0.033400
C16   C     C_R   0.564820 0.101484 0.427703 -0.035307
C17   C     C_R   0.565251 0.899349 0.428673 -0.033160
C18   C     C_R   0.436907 0.101254 0.574595 -0.036637
C19   C     C_R   0.501259 0.949778 0.501658 0.053152
C20   C     C_R   0.501130 0.050945 0.501533 0.049114
C21   C     C_R   0.374908 0.950947 0.649077 -0.206396
C22   C     C_R   0.628808 0.049869 0.356364 -0.194896
C23   C     C_R   0.627613 0.951230 0.354372 -0.199022
C24   C     C_R   0.373765 0.049525 0.647357 -0.189048
C25   C     C_R   0.498937 0.500306 0.257516 0.851084
C26   C     C_R   0.501742 0.499838 0.742460 0.848079
C27   C     C_3   0.466276 0.583282 0.040127 -0.146838
C28   C     C_3   0.535327 0.417890 0.959988 -0.161963
C29   C     C_3   0.552247 0.572290 0.957441 -0.157466
C30   C     C_3   0.449235 0.428820 0.042423 -0.176873
C31   C     C_3   0.416445 0.510901 0.957413 -0.193235
C32   C     C_3   0.585050 0.490345 0.042634 -0.189412
C33   C     C_3   0.502332 0.499810 0.877548 0.038873
C34   C     C_3   0.499128 0.501098 0.122440 0.042198
C35   C     C_R   0.813716 0.460843 0.396621 -0.263676
C36   C     C_R   0.185975 0.531251 0.607477 -0.241853
C37   C     C_R   0.767903 0.499349 0.499938 -0.065171
C38   C     C_R   0.232054 0.498887 0.500682 -0.077747
C39   C     C_R   0.811836 0.536769 0.603754 -0.246145
C40   C     C_R   0.188278 0.462824 0.395736 -0.237675
C41   C     C_R   0.905097 0.534942 0.606996 0.116899
C42   C     C_R   0.094934 0.461325 0.394370 0.094566
H1    H     H_    0.348016 0.519142 0.917621 0.129954
H2    H     H_    0.653573 0.482521 0.082231 0.119457
H3    H     H_    0.438049 0.650531 0.077259 0.137762
H4    H     H_    0.564910 0.350995 0.924057 0.137565
H5    H     H_    0.594348 0.630427 0.918078 0.135229
H6    H     H_    0.406968 0.370648 0.081308 0.136435
H7    H     H_    0.775300 0.432893 0.318265 0.134867
H8    H     H_    0.223839 0.555956 0.688489 0.162294
H9    H     H_    0.772399 0.565556 0.682252 0.158971
H10   H     H_    0.227788 0.437021 0.315406 0.158813
H11   H     H_    0.326009 0.915938 0.709946 0.144801
H12   H     H_    0.680888 0.084722 0.301146 0.142243
H13   H     H_    0.676130 0.916573 0.292877 0.142404
H14   H     H_    0.322156 0.084226 0.703371 0.144141
N1    N     N_R   0.500000 0.750030 0.500000 -0.131067
N2    N     N_R   0.500000 0.249970 0.500000 -0.129765
O1    O     O_R   0.367850 0.580280 0.500030 -0.593461
O2    O     O_R   0.632150 0.419720 0.499970 -0.603541
O3    O     O_R   0.632150 0.580280 0.499970 -0.596480
O4    O     O_R   0.367850 0.419720 0.500030 -0.603482
O5    O     O_R   0.499970 0.580260 0.313950 -0.619266
O6    O     O_R   0.500030 0.419740 0.686050 -0.606237
O7    O     O_R   0.500030 0.580260 0.686050 -0.619977
O8    O     O_R   0.499970 0.419740 0.313950 -0.607325
Zn1   Zn    Zn3+2 0.500000 0.607200 0.500000 0.964719
Zn2   Zn    Zn3+2 0.500000 0.392800 0.500000 0.968721
N3    N     N_3   0.900309 0.605802 0.821179 -0.485240
H15   H     H_    0.916033 0.566216 0.902348 0.184167
H16   H     H_    0.918784 0.675996 0.835872 0.182085
N4    N     N_3   0.099244 0.390427 0.179959 -0.476732
H17   H     H_    0.081273 0.319970 0.165868 0.202183
H18   H     H_    0.080735 0.429302 0.099331 0.194801
N5    N     N_3   0.093003 0.602011 0.823656 -0.487975
H19   H     H_    0.076333 0.672928 0.837774 0.181677
H20   H     H_    0.073552 0.563201 0.904431 0.183164
N6    N     N_3   0.910748 0.387842 0.178343 -0.481869
H21   H     H_    0.870379 0.331097 0.207164 0.184090
H22   H     H_    0.870308 0.440824 0.139346 0.177179
N7    N     N_2   0.634561 0.746434 0.369478 -0.253213
H23   H     H_    0.637656 0.758497 0.272417 0.198567
C43   C     C_3   0.722024 0.749041 0.429384 -0.733170
H24   H     H_    0.754442 0.818886 0.417439 0.207337
H25   H     H_    0.766606 0.695237 0.384756 0.237592
H26   H     H_    0.715887 0.733464 0.533181 0.253059
N8    N     N_2   0.375108 0.254513 0.647642 -0.251541
H27   H     H_    0.308811 0.240457 0.627537 0.207544
C44   C     C_3   0.392901 0.260138 0.782986 -0.737585
H28   H     H_    0.358669 0.202308 0.836014 0.200748
H29   H     H_    0.366393 0.328087 0.819981 0.241598
H30   H     H_    0.466134 0.256119 0.801707 0.241365
N9    N     N_2   0.362464 0.747754 0.624246 -0.252968
H31   H     H_    0.356921 0.757457 0.721469 0.199701
C45   C     C_3   0.277313 0.757665 0.559065 -0.751967
H32   H     H_    0.254546 0.832144 0.555439 0.214903
H33   H     H_    0.224730 0.716912 0.610603 0.236155
H34   H     H_    0.283232 0.731508 0.459592 0.259305
N10   N     N_2   0.621891 0.255198 0.347387 -0.251911
H35   H     H_    0.688827 0.241970 0.364789 0.202671
C46   C     C_3   0.601146 0.256420 0.212621 -0.762850
H36   H     H_    0.620409 0.189097 0.166277 0.208749
H37   H     H_    0.639438 0.314058 0.165174 0.227750
H38   H     H_    0.528203 0.268156 0.197746 0.257458

loop_
_geom_bond_atom_site_label_1
_geom_bond_atom_site_label_2
_ccdc_geom_bond_type
O8    Zn2   S    
N8    H27   S    
N9    H31   S    
C27   C29   S    
C45   H32   S    
C39   H9    S    
C19   C20   A    
C1    O4    A    
C6    C9    A    
N7    H23   S    
C10   N6    S    
C45   H34   S    
C14   N10   S    
C39   C41   A    
C11   N7    S    
C15   C19   A    
C28   H4    S    
C17   C23   A    
C31   H1    S    
C29   H5    S    
C18   C24   A    
O6    Zn2   S    
C30   H6    S    
C35   C37   A    
C8    C42   A    
C29   C32   S    
C1    O1    A    
C30   C31   S    
N6    H22   S    
C13   N1    A    
C29   C33   S    
C25   O5    A    
N3    H16   S    
C26   O6    A    
O1    Zn1   S    
C11   C17   A    
N10   H35   S    
O7    Zn1   S    
C35   H7    S    
C31   C33   S    
C44   H29   S    
C2    O3    A    
C25   C34   S    
C12   N2    A    
C27   H3    S    
C40   C42   A    
C46   H37   S    
C22   H12   S    
C2    O2    A    
N1    Zn1   S    
N7    C43   S    
C27   C34   S    
C14   N2    A    
O5    Zn1   S    
C8    N4    S    
C30   C34   S    
C27   C31   S    
C46   H36   S    
C28   C32   S    
N4    H18   S    
N6    H21   S    
C40   H10   S    
C13   N9    S    
C32   C34   S    
N5    H19   S    
C21   H11   S    
O3    Zn1   S    
C26   C33   S    
C43   H24   S    
C16   C20   A    
C32   H2    S    
C44   H30   S    
N5    H20   S    
C1    C38   S    
C4    C6    A    
C43   H25   S    
C28   C33   S    
C46   H38   S    
C13   C15   A    
C14   C16   A    
C3    C4    A    
C36   H8    S    
N2    Zn2   S    
C7    C9    A    
C3    C41   A    
C16   C22   A    
C12   N8    S    
N10   C46   S    
C26   O7    A    
C25   O8    A    
N4    H17   S    
C3    C5    A    
C7    N3    S    
C45   H33   S    
C23   H13   S    
C24   H14   S    
O4    Zn2   S    
C28   C30   S    
C5    C10   A    
C37   C39   A    
C38   C40   A    
C2    C37   S    
N9    C45   S    
C4    C42   A    
C5    C35   A    
C36   C38   A    
C17   C19   A    
C6    C36   A    
C18   C20   A    
C7    C41   A    
N3    H15   S    
C15   C21   A    
C43   H26   S    
O2    Zn2   S    
C8    C10   A    
C21   C24   A    
C12   C18   A    
N8    C44   S    
C22   C23   A    
C9    N5    S    
C44   H28   S    
C11   N1    A    
