data_mof_unit_pretest_794.cif
_audit_creation_date              2012-12-10T17:54:24-0500
_audit_creation_method            fapswitch 2.2
_symmetry_space_group_name_H-M    P1
_symmetry_Int_Tables_number       1
_space_group_crystal_system       triclinic
_cell_length_a                    27.748225
_cell_length_b                    10.720153
_cell_length_c                    9.868501
_cell_angle_alpha                 89.192879
_cell_angle_beta                  89.992417
_cell_angle_gamma                 91.749824
_cell_volume                      2933.87532096

loop_
_atom_site_label
_atom_site_type_symbol
_atom_type_description
_atom_site_fract_x
_atom_site_fract_y
_atom_site_fract_z
_atom_type_partial_charge
C1    C     C_R   0.502880 0.259754 0.502046 0.867880
C2    C     C_R   0.973131 0.379814 0.471735 0.046083
C3    C     C_R   0.976339 0.609665 0.489955 0.046887
C4    C     C_R   0.406053 0.499081 0.500000 0.849578
C5    C     C_R   0.949527 0.495188 0.480034 0.071872
C6    C     C_R   0.944654 0.268065 0.469783 -0.213689
C7    C     C_R   0.894726 0.270002 0.471222 -0.133124
C8    C     C_R   0.871277 0.383141 0.475104 -0.026515
C9    C     C_R   0.898487 0.496090 0.479161 -0.051713
C10   C     C_R   0.874533 0.609935 0.483134 -0.026028
C11   C     C_R   0.824128 0.608617 0.484268 0.514047
C12   C     C_R   0.278105 0.482470 0.376770 -0.103546
C13   C     C_R   0.820920 0.386081 0.477201 0.512698
C14   C     C_R   0.720368 0.468803 0.373138 -0.097652
C15   C     C_R   0.670458 0.469960 0.378397 -0.300413
C16   C     C_R   0.494922 0.738822 0.499623 0.893848
C17   C     C_R   0.674111 0.531050 0.615649 0.435217
C18   C     C_R   0.724544 0.529395 0.608626 -0.216055
C19   C     C_R   0.747338 0.498487 0.488016 0.278952
C20   C     C_R   0.024172 0.379656 0.467442 0.046619
C21   C     C_R   0.050892 0.493266 0.485923 0.070886
C22   C     C_R   0.027213 0.607911 0.500499 0.045945
C23   C     C_R   0.253009 0.490071 0.498960 0.322576
C24   C     C_R   0.049648 0.269488 0.444836 -0.215550
C25   C     C_R   0.105259 0.714472 0.533282 -0.135109
C26   C     C_R   0.951139 0.722447 0.488466 -0.214250
C27   C     C_R   0.901202 0.722281 0.485559 -0.135467
C28   C     C_R   0.594028 0.500774 0.500038 0.925424
C29   C     C_R   0.055403 0.717027 0.527141 -0.215466
C30   C     C_R   0.507232 0.106753 0.762689 -0.155842
C31   C     C_R   0.490905 0.043192 0.879000 -0.141740
C32   C     C_R   0.465660 0.930019 0.867390 -0.154121
C33   C     C_R   0.461137 0.874812 0.740932 -0.146369
C34   C     C_R   0.101908 0.492202 0.490112 -0.051729
C35   C     C_R   0.481789 0.933428 0.624059 0.100769
C36   C     C_R   0.498129 0.057633 0.631838 0.096583
C37   C     C_R   0.504470 0.125685 0.507787 -0.115856
C38   C     C_R   0.504598 0.064399 0.383678 -0.211574
C39   C     C_R   0.498442 0.937483 0.380561 -0.208128
C40   C     C_R   0.176471 0.381364 0.474837 0.503505
C41   C     C_R   0.488588 0.871180 0.500427 -0.126056
C42   C     C_R   0.436188 0.337203 0.142750 -0.175336
C43   C     C_R   0.404632 0.257681 0.073310 -0.210988
C44   C     C_R   0.404585 0.258062 0.933100 -0.179359
C45   C     C_R   0.126067 0.380166 0.470781 -0.020640
C46   C     C_R   0.436211 0.337664 0.861626 -0.167170
C47   C     C_R   0.468545 0.419856 0.928686 0.144045
C48   C     C_R   0.468552 0.419783 0.073557 0.170099
C49   C     C_R   0.529951 0.577019 0.070444 -0.130037
C50   C     C_R   0.529935 0.576989 0.927025 -0.083405
C51   C     C_R   0.179210 0.600055 0.517440 0.504889
C52   C     C_R   0.277838 0.499841 0.621737 -0.099903
C53   C     C_R   0.327931 0.502501 0.622405 -0.224386
C54   C     C_R   0.328160 0.485474 0.376988 -0.220221
C55   C     C_R   0.099611 0.269970 0.446836 -0.137469
C56   C     C_R   0.128889 0.603188 0.513677 -0.022030
C57   C     C_R   0.353410 0.495928 0.499848 -0.035435
C58   C     C_R   0.646867 0.500644 0.498975 -0.096019
H1    H     H_    0.346980 0.479644 0.281226 0.166507
H2    H     H_    0.497057 0.083105 0.977931 0.146512
H3    H     H_    0.258730 0.475170 0.281816 0.139341
H4    H     H_    0.451053 0.882946 0.956780 0.141285
H5    H     H_    0.441379 0.786433 0.735553 0.159207
H6    H     H_    0.502404 0.891342 0.284351 0.169837
H7    H     H_    0.554367 0.639843 0.123623 0.154124
H8    H     H_    0.434011 0.330967 0.250185 0.209973
H9    H     H_    0.380154 0.195167 0.128823 0.164351
H10   H     H_    0.380216 0.195510 0.879193 0.164907
H11   H     H_    0.434601 0.330906 0.754309 0.211203
H12   H     H_    0.258247 0.505682 0.716238 0.139452
H13   H     H_    0.554323 0.639845 0.871845 0.182531
H14   H     H_    0.117437 0.183098 0.429391 0.190121
H15   H     H_    0.650316 0.446040 0.287911 0.188479
H16   H     H_    0.738193 0.445084 0.279744 0.153960
H17   H     H_    0.874546 0.181875 0.469964 0.192479
H18   H     H_    0.959732 0.176713 0.470628 0.138629
H19   H     H_    0.032148 0.181176 0.422390 0.139916
H20   H     H_    0.346608 0.510229 0.718439 0.165117
H21   H     H_    0.675671 0.582156 0.804397 0.330404
H22   H     H_    0.125238 0.800593 0.553689 0.192426
H23   H     H_    0.968907 0.813167 0.486914 0.138041
H24   H     H_    0.883567 0.811087 0.485701 0.189585
H25   H     H_    0.746296 0.552292 0.696509 0.138714
H26   H     H_    0.040072 0.805985 0.547094 0.140965
H27   H     H_    0.510174 0.114184 0.288328 0.172468
H28   H     H_    0.528368 0.191418 0.778487 0.176886
N1    N     N_R   0.201713 0.490287 0.497842 -0.358376
N2    N     N_R   0.798624 0.497709 0.482346 -0.347909
N3    N     N_R   0.499540 0.498800 0.142780 -0.123361
N4    N     N_R   0.499520 0.498720 0.857170 -0.131583
O1    O     O_R   0.500000 0.316780 0.614690 -0.657256
O2    O     O_R   0.571250 0.499990 0.614680 -0.551021
O3    O     O_R   0.571240 0.499970 0.385350 -0.631447
O4    O     O_2   0.200166 0.274763 0.456534 -0.554402
O5    O     O_3   0.651174 0.563736 0.733698 -0.759671
O6    O     O_2   0.794361 0.278476 0.475513 -0.547357
O7    O     O_2   0.205570 0.705811 0.539252 -0.552427
O8    O     O_2   0.800669 0.717045 0.487229 -0.547812
O9    O     O_R   0.500000 0.316750 0.385360 -0.639697
O10   O     O_R   0.428760 0.500030 0.614650 -0.650961
O11   O     O_R   0.428750 0.500010 0.385320 -0.640337
O12   O     O_R   0.500000 0.683250 0.614640 -0.623536
O13   O     O_R   0.500000 0.683220 0.385310 -0.619812
Zn1   Zn    Zn3+2 0.500000 0.500020 0.653130 0.951734
Zn2   Zn    Zn3+2 0.500000 0.499980 0.346870 0.937797

loop_
_geom_bond_atom_site_label_1
_geom_bond_atom_site_label_2
_ccdc_geom_bond_type
C10   C27   A    
C51   O7    S    
C34   C56   A    
C8    C13   A    
C22   C29   A    
C25   H22   S    
C35   C36   A    
C25   C56   A    
O1    Zn1   S    
C43   C44   A    
C1    O9    A    
C7    C8    A    
C39   C41   A    
C31   C32   A    
C24   C55   A    
H21   O5    S    
C39   H6    S    
C12   C23   A    
C26   C27   A    
C49   H7    S    
C11   O8    S    
C14   H16   S    
C40   N1    A    
C36   C37   A    
C18   C19   A    
C30   C31   A    
O10   Zn1   S    
C51   C56   A    
C46   H11   S    
O3    Zn2   S    
C50   N4    A    
C20   C24   A    
C8    C9    A    
C4    C57   S    
C17   O5    S    
C40   O4    S    
C30   H28   S    
C9    C10   A    
C55   H14   S    
C1    C37   S    
C17   C58   A    
C1    O1    A    
C23   N1    S    
C21   C22   A    
O11   Zn2   S    
C2    C6    A    
C44   C46   A    
C17   C18   A    
C54   H1    S    
C27   H24   S    
C25   C29   A    
C40   C45   A    
O9    Zn2   S    
C38   H27   S    
C2    C20   A    
C29   H26   S    
O13   Zn2   S    
C19   N2    S    
C51   N1    A    
C53   C57   A    
C7    H17   S    
C21   C34   A    
C13   O6    S    
C28   O3    A    
C31   H2    S    
C50   H13   S    
C5    C9    A    
C37   C38   A    
C16   O13   A    
C47   C48   A    
C11   N2    A    
C33   H5    S    
C4    O11   A    
C18   H25   S    
C28   O2    A    
C34   C45   A    
C42   C48   A    
O12   Zn1   S    
N4    Zn1   S    
C16   O12   A    
C15   H15   S    
C26   H23   S    
C48   N3    A    
C4    O10   A    
C15   C58   A    
C44   H10   S    
C2    C5    A    
C42   C43   A    
C52   C53   A    
C46   C47   A    
C14   C19   A    
C3    C26   A    
C49   N3    A    
C3    C5    A    
C6    H18   S    
C6    C7    A    
C28   C58   S    
C30   C36   A    
C32   C33   A    
C53   H20   S    
C32   H4    S    
C12   H3    S    
C23   C52   A    
C38   C39   A    
C13   N2    A    
C33   C35   A    
C35   C41   A    
C47   N4    A    
C52   H12   S    
C10   C11   A    
O2    Zn1   S    
C24   H19   S    
C20   C21   A    
C45   C55   A    
C43   H9    S    
C49   C50   A    
N3    Zn2   S    
C42   H8    S    
C14   C15   A    
C3    C22   A    
C16   C41   S    
C12   C54   A    
C54   C57   A    
