data_mof_unit_pretest_1103.cif
_audit_creation_date              2013-03-05T16:08:55-0500
_audit_creation_method            fapswitch 2.2
_symmetry_space_group_name_H-M    P1
_symmetry_Int_Tables_number       1
_space_group_crystal_system       triclinic
_cell_length_a                    8.200367
_cell_length_b                    15.109976
_cell_length_c                    17.2552
_cell_angle_alpha                 100.944349
_cell_angle_beta                  96.89333
_cell_angle_gamma                 99.229549
_cell_volume                      2046.85418957

loop_
_atom_site_label
_atom_site_type_symbol
_atom_site_description
_atom_site_fract_x
_atom_site_fract_y
_atom_site_fract_z
_atom_type_partial_charge
P1    P     P_3+3 0.993930 0.412000 0.316950 0.468332
O1    O     O_2   0.823660 0.438400 0.305670 -0.383124
O2    O     O_3   0.097530 0.445010 0.403900 -0.389801
O3    O     O_3   0.626680 0.608380 0.360110 -0.380929
O4    O     O_2   0.673418 0.532470 0.214769 -0.393420
O5    O     O_3   0.943425 0.291865 0.292651 -0.586537
O6    O     O_3   0.644329 0.704724 0.237118 -0.523776
H1    H     H_    0.720970 0.775888 0.354396 0.160781
C1    C     C_3   0.659797 0.866618 0.278257 -1.001314
H2    H     H_    0.789026 0.882104 0.264796 0.289542
H3    H     H_    0.569789 0.865764 0.224665 0.246757
P2    P     P_3+3 0.694120 0.714590 0.569800 0.445206
P3    P     P_3+3 0.110890 0.775432 0.409211 0.415581
O7    O     O_2   0.863890 0.726710 0.546580 -0.372390
O8    O     O_3   0.059540 0.657940 0.401520 -0.379812
O9    O     O_2   0.999751 0.821555 0.464239 -0.398863
O10   O     O_3   0.736730 0.746625 0.674096 -0.600953
O11   O     O_3   0.045517 0.801620 0.317327 -0.542517
C2    C     C_3   0.091021 0.739752 0.256091 0.481071
H4    H     H_    0.012991 0.670534 0.248759 0.137697
H5    H     H_    0.225361 0.736170 0.268427 0.014003
C3    C     C_3   0.061153 0.772789 0.178519 -0.998735
H6    H     H_    0.101122 0.726601 0.129358 0.233953
H7    H     H_    0.926200 0.773537 0.162502 0.287642
C4    C     C_3   0.283922 0.745464 0.645465 0.242008
H8    H     H_    0.411159 0.734300 0.638452 0.068264
H9    H     H_    0.197707 0.714191 0.588633 0.082677
C5    C     C_3   0.282783 0.848784 0.663503 0.174844
H10   H     H_    0.344093 0.882925 0.620066 0.021744
H11   H     H_    0.150617 0.857287 0.654393 0.109988
Ba1   Ba    Ba6+2 0.844380 0.541120 0.463220 1.552828
C6    C     C_3   0.914425 0.257719 0.360509 0.431309
H12   H     H_    0.820942 0.291003 0.389759 0.109642
H13   H     H_    0.031572 0.270368 0.403387 0.126935
C7    C     C_3   0.849586 0.154488 0.334960 -1.034961
H14   H     H_    0.722495 0.140477 0.299613 0.302670
H15   H     H_    0.844600 0.123198 0.387905 0.228549
H16   H     H_    0.933146 0.121363 0.297521 0.247783
C8    C     C_3   0.783252 0.674367 0.705944 0.437813
H17   H     H_    0.894892 0.655124 0.682259 0.102962
H18   H     H_    0.679565 0.613986 0.691769 0.130730
C9    C     C_3   0.825091 0.706735 0.796299 -1.021921
H19   H     H_    0.931080 0.766062 0.811982 0.278037
H20   H     H_    0.860387 0.651064 0.824201 0.232860
H21   H     H_    0.714635 0.727603 0.820876 0.258155
P4    P     P_3+3 0.195780 0.588080 0.683070 0.482489
O12   O     O_2   0.366060 0.561630 0.694380 -0.358884
O13   O     O_3   0.092190 0.555060 0.596110 -0.409766
O14   O     O_3   0.563040 0.391700 0.639900 -0.390612
O15   O     O_3   0.235074 0.708282 0.709230 -0.549951
P5    P     P_3+3 0.089351 0.226075 0.600614 0.448948
O16   O     O_3   0.598290 0.387090 0.455760 -0.352779
O17   O     O_3   0.130180 0.342130 0.598490 -0.351881
O18   O     O_2   0.207930 0.180737 0.549742 -0.399865
O19   O     O_3   0.161539 0.217280 0.697922 -0.495908
Ba2   Ba    Ba6+2 0.345460 0.458950 0.536790 1.547994
P6    P     P_3+3 0.570373 0.597824 0.258192 0.450997
C10   C     C_3   0.628064 0.773912 0.301407 0.502610
H22   H     H_    0.500589 0.762972 0.317572 0.003465
H23   H     H_    0.643457 0.921284 0.328128 0.229837
O20   O     O_3   0.591420 0.612980 0.544250 -0.387794
C11   C     C_3   0.315196 0.184615 0.290014 0.269104
H24   H     H_    0.223866 0.178588 0.331327 0.014410
H25   H     H_    0.258755 0.220393 0.246320 0.099450
C12   C     C_3   0.326020 0.088874 0.245257 0.138123
H26   H     H_    0.393259 0.053615 0.286307 0.095869
H27   H     H_    0.195578 0.049699 0.224949 0.031649
P7    P     P_3+3 0.503377 0.269856 0.429259 0.435796
O21   O     O_2   0.325830 0.273320 0.453470 -0.384994
O22   O     O_3   0.476987 0.235062 0.324402 -0.581983
H28   H     H_    0.134154 0.843194 0.185501 0.242862
C13   C     C_3   0.048360 0.246375 0.747700 0.414385
H29   H     H_    0.009497 0.310543 0.736167 0.074974
H30   H     H_    0.937127 0.190800 0.738996 0.041338
C14   C     C_3   0.131323 0.265859 0.834407 -0.914689
H31   H     H_    0.242096 0.322087 0.845026 0.289821
H32   H     H_    0.041562 0.287116 0.874362 0.204287
H33   H     H_    0.171679 0.203304 0.848743 0.249943
P8    P     P_3+3 0.597742 0.402156 0.742936 0.465199
C15   C     C_3   0.572982 0.227524 0.702706 0.545387
H34   H     H_    0.703543 0.244179 0.691406 -0.043784
O23   O     O_2   0.474757 0.459622 0.779350 -0.370112
O24   O     O_3   0.540508 0.293998 0.764767 -0.510072
H35   H     H_    0.485952 0.222702 0.647017 0.154359
H36   H     H_    0.569490 0.081416 0.676136 0.218296
C16   C     C_3   0.546572 0.134475 0.725467 -0.991434
H37   H     H_    0.416128 0.115715 0.736541 0.298128
H38   H     H_    0.634487 0.136406 0.780244 0.242919
C17   C     C_2   0.260236 0.464890 0.240330 -0.184462
C18   C     C_3   0.338146 0.560060 0.231071 0.122717
C19   C     C_2   0.265002 0.573557 0.150860 -0.282110
C20   C     C_2   0.103534 0.532663 0.122328 0.100187
C21   C     C_2   0.010156 0.479411 0.175387 -0.274299
C22   C     C_1   0.095897 0.456689 0.238028 0.238496
C23   C     C_R   0.878508 0.472796 0.862123 -0.274236
C24   C     C_R   0.815590 0.457084 0.780949 0.227113
C25   C     C_R   0.079073 0.535207 0.754363 0.342117
C26   C     C_R   0.142605 0.552033 0.836624 -0.256248
C27   C     C_R   0.043109 0.520581 0.891399 0.123659
C28   C     C_2   0.025979 0.528112 0.038175 -0.174038
C29   C     C_2   0.116150 0.536080 0.977756 -0.168427
C30   C     C_R   0.917049 0.485517 0.727243 -0.513954
H39   H     H_    0.251537 0.551702 0.990959 0.140652
H40   H     H_    0.883475 0.442734 0.152388 0.164799
H41   H     H_    0.798202 0.446695 0.901136 0.142062
H42   H     H_    0.890723 0.511699 0.025825 0.144493
H43   H     H_    0.340463 0.614777 0.118452 0.157922
H44   H     H_    0.268061 0.590935 0.858069 0.148172
H45   H     H_    0.866592 0.473240 0.664491 0.170994
C31   C     C_R   0.868308 0.173981 0.558948 0.140296
C32   C     C_R   0.799979 0.080228 0.552545 -0.014186
C33   C     C_R   0.659424 0.890909 0.535235 -0.043856
C34   C     C_R   0.818626 0.929473 0.579908 -0.097612
C35   C     C_R   0.889142 0.021640 0.586859 -0.197121
C36   C     C_R   0.589405 0.795899 0.522931 0.239743
H46   H     H_    0.891556 0.889192 0.609887 0.163706
H47   H     H_    0.013413 0.046479 0.620457 0.170809
C37   C     C_R   0.428959 0.762543 0.479291 -0.553853
C38   C     C_R   0.609322 0.195489 0.485021 0.209638
C39   C     C_R   0.539451 0.102545 0.479208 -0.013315
C40   C     C_R   0.635343 0.044350 0.511628 0.025502
C41   C     C_R   0.374722 0.066244 0.442628 -0.165333
C42   C     C_R   0.306570 0.975042 0.434014 -0.180811
C43   C     C_R   0.400639 0.915011 0.461958 0.001231
C44   C     C_R   0.565880 0.949789 0.502394 0.006174
C45   C     C_R   0.332093 0.821618 0.451727 0.158981
C46   C     C_R   0.770193 0.230615 0.527363 -0.507332
H48   H     H_    0.178430 0.953432 0.405087 0.190052
H49   H     H_    0.292808 0.107479 0.421401 0.161002
H50   H     H_    0.374682 0.690605 0.471090 0.192703
H51   H     H_    0.823032 0.302097 0.531849 0.172373
O25   O     O_3   0.351337 0.892146 0.743527 -0.568182
C47   C     C_3   0.527192 0.902433 0.755459 -0.095701
H52   H     H_    0.563840 0.836929 0.763562 0.171817
H53   H     H_    0.578225 0.954231 0.811380 0.142075
H54   H     H_    0.585102 0.927047 0.706460 0.108413
O26   O     O_3   0.413202 0.096284 0.180370 -0.574121
C48   C     C_3   0.386578 0.010237 0.127295 -0.184704
H55   H     H_    0.255242 0.991317 0.095875 0.138406
H56   H     H_    0.417288 0.955641 0.158454 0.123999
H57   H     H_    0.469803 0.014982 0.081492 0.160453
C49   C     C_R   0.323244 0.386434 0.194242 0.037982
C50   C     C_R   0.244141 0.338539 0.116799 -0.142157
C51   C     C_R   0.319689 0.275118 0.070822 -0.120370
C52   C     C_R   0.474280 0.258273 0.101132 -0.069770
C53   C     C_R   0.550402 0.302521 0.178439 -0.018673
C54   C     C_R   0.473687 0.365237 0.225020 -0.007164
H58   H     H_    0.126135 0.350780 0.090286 0.127849
H59   H     H_    0.259059 0.239798 0.011289 0.127173
H60   H     H_    0.533424 0.209527 0.065418 0.122477
H61   H     H_    0.667245 0.286717 0.202558 0.173912
H62   H     H_    0.529537 0.397548 0.285715 0.182445

loop_
_geom_bond_atom_site_label_1
_geom_bond_atom_site_label_2
_geom_bond_distance
_ccdc_geom_bond_type
O5    C6    1.396648 S    
C21   C22   1.347754 D    
C24   C30   1.398989 A    
C32   C40   1.416381 A    
Ba1   O20   2.877352 S    
C2    H4    1.111286 S    
Ba1   O16   2.796965 S    
C15   H35   1.109109 S    
C52   C53   1.394166 A    
C42   H48   1.078003 S    
C42   C43   1.396983 A    
C8    H18   1.109805 S    
H36   C16   1.109162 S    
C4    C5    1.534619 S    
C11   H24   1.099222 S    
P3    O11   1.749275 S    
C5    H10   1.111190 S    
C7    H15   1.107508 S    
C1    C10   1.519854 S    
C15   O24   1.404421 S    
P7    C38   1.861791 S    
C15   H34   1.109024 S    
C23   C27   1.408415 A    
C17   C49   1.497282 S    
P1    Ba1   3.364711 S    
C26   H44   1.082995 S    
C11   O22   1.417123 S    
P1    O1    1.513113 D    
O10   C8    1.396684 S    
C17   C22   1.328451 D    
C4    O15   1.398217 S    
C28   C29   1.361000 D    
C15   C16   1.519968 S    
C23   H41   1.079958 S    
H1    C10   1.110165 S    
C31   C32   1.415637 A    
C23   C24   1.394781 A    
O25   C47   1.410963 S    
C12   H27   1.116037 S    
P2    O10   1.749039 S    
C47   H54   1.112570 S    
C11   H25   1.107329 S    
Ba1   Ba2   4.484170 S    
P5    O18   1.541307 D    
C1    H2    1.109913 S    
O7    Ba1   2.868395 S    
C41   H49   1.065563 S    
P5    O19   1.748917 S    
C52   H60   1.082352 S    
O16   P7    1.765645 S    
C31   C46   1.403340 A    
P2    C36   1.857377 S    
C12   O26   1.411134 S    
C29   H39   1.083979 S    
C9    H20   1.105255 S    
C13   C14   1.520580 S    
C21   H40   1.084730 S    
C33   C34   1.407822 A    
C39   C41   1.396496 A    
C25   C26   1.412037 A    
C8    C9    1.521821 S    
C5    O25   1.415615 S    
C3    H6    1.108789 S    
C50   H58   1.078515 S    
P4    O13   1.579836 S    
P6    C18   1.872767 S    
P1    O5    1.752301 S    
O3    Ba1   2.809184 S    
C6    C7    1.525347 S    
C19   H43   1.084088 S    
C2    C3    1.521527 S    
C13   H30   1.110519 S    
C8    H17   1.104432 S    
Ba2   O21   2.868548 S    
C16   H37   1.110619 S    
P7    O21   1.568186 D    
C10   H22   1.109028 S    
O14   P8    1.739065 S    
O1    Ba1   2.833861 S    
P1    O2    1.579718 S    
C9    H21   1.110292 S    
C6    H13   1.106157 S    
O3    P6    1.733880 S    
C14   H31   1.110823 S    
C40   C44   1.421997 A    
C51   H59   1.082299 S    
C37   H50   1.082110 S    
C1    H3    1.108442 S    
O2    Ba2   2.827741 S    
C36   C37   1.399113 A    
C7    H16   1.109459 S    
O2    Ba1   2.894615 S    
C14   H32   1.110780 S    
C33   C44   1.416709 A    
C34   C35   1.396362 A    
C48   H56   1.111560 S    
P3    C45   1.842741 S    
C27   C29   1.497427 S    
P4    C25   1.864942 S    
P2    O7    1.487346 D    
C12   H26   1.110565 S    
P5    C31   1.853843 S    
Ba1   O13   2.827143 S    
P3    O8    1.733194 S    
P2    Ba1   3.394167 S    
C47   H52   1.107871 S    
C3    H7    1.110400 S    
C9    H19   1.110737 S    
C17   C18   1.522713 S    
C3    H28   1.111004 S    
C19   C20   1.357565 D    
C39   C40   1.416872 A    
C20   C28   1.498036 S    
C43   C45   1.402024 A    
C53   C54   1.401138 A    
O17   Ba2   2.744248 S    
O13   Ba2   2.895444 S    
P4    O12   1.513555 D    
O6    C10   1.407551 S    
C11   C12   1.526602 S    
C2    H5    1.108628 S    
Ba2   O20   2.796346 S    
C49   C54   1.393084 A    
O19   C13   1.404026 S    
C13   H29   1.112834 S    
C48   H57   1.109430 S    
P1    C22   1.857703 S    
P8    O23   1.546522 D    
C38   C39   1.408990 A    
O8    Ba1   2.743670 S    
C4    H9    1.111419 S    
O14   Ba2   2.808488 S    
O26   C48   1.409139 S    
P4    O15   1.752826 S    
C28   H42   1.082630 S    
O4    P6    1.545726 D    
C51   C52   1.392946 A    
C1    H23   1.110877 S    
C6    H12   1.102509 S    
C34   H46   1.075991 S    
C5    H11   1.107838 S    
C54   H62   1.078870 S    
C4    H8    1.100356 S    
P8    C24   1.829431 S    
P8    O24   1.750201 S    
P2    O20   1.581118 S    
C18   C19   1.504689 S    
C20   C21   1.523934 S    
C32   C35   1.404137 A    
C16   H38   1.110485 S    
C14   H33   1.110679 S    
C46   H51   1.081858 S    
C35   H47   1.080897 S    
C48   H55   1.112568 S    
C53   H61   1.078750 S    
O16   Ba2   2.876455 S    
P7    O22   1.762166 S    
C26   C27   1.419899 A    
P3    O9    1.542109 D    
P4    Ba2   3.365489 S    
C47   H53   1.109060 S    
O11   C2    1.400398 S    
C49   C50   1.415747 A    
O12   Ba2   2.834374 S    
C30   H45   1.081498 S    
C7    H14   1.109326 S    
C37   C45   1.397102 A    
P5    O17   1.739984 S    
C41   C42   1.374304 A    
C25   C30   1.394768 A    
O6    P6    1.752382 S    
C33   C36   1.423479 A    
C50   C51   1.396879 A    
C43   C44   1.415808 A    
C38   C46   1.397353 A    
