data_mof_unit_pretest_1726.cif
_audit_creation_date              2012-12-10T16:46:26-0500
_audit_creation_method            fapswitch 2.2
_symmetry_space_group_name_H-M    P1
_symmetry_Int_Tables_number       1
_space_group_crystal_system       triclinic
_cell_length_a                    18.981325
_cell_length_b                    18.925717
_cell_length_c                    19.166905
_cell_angle_alpha                 109.711667
_cell_angle_beta                  110.368042
_cell_angle_gamma                 109.236801
_cell_volume                      5240.12805847

loop_
_atom_site_label
_atom_site_type_symbol
_atom_type_description
_atom_site_fract_x
_atom_site_fract_y
_atom_site_fract_z
_atom_type_partial_charge
C1    C     C_R   0.376839 0.382450 0.493964 0.697287
C2    C     C_3   0.804963 0.499600 0.808706 -0.113084
C3    C     C_3   0.844577 0.570449 0.787831 -0.384430
C4    C     C_3   0.742414 0.516905 0.839170 0.173033
C5    C     C_2   0.189378 0.169733 0.429726 -0.129556
C6    C     C_2   0.189282 0.180999 0.502812 0.356545
C7    C     C_2   0.263685 0.232475 0.433156 -0.138417
C8    C     C_2   0.295812 0.318395 0.480167 0.319940
C9    C     C_2   0.174225 0.494675 0.246053 -0.143560
C10   C     C_2   0.183742 0.509387 0.185298 -0.321920
C11   C     C_2   0.247711 0.506853 0.319498 -0.153336
C12   C     C_R   0.614140 0.495934 0.618551 0.927848
C13   C     C_2   0.308922 0.491144 0.310636 -0.315126
C14   C     C_2   0.734033 0.759180 0.430382 -0.115555
C15   C     C_2   0.819125 0.804700 0.489719 -0.251379
C16   C     C_2   0.674080 0.685992 0.430470 -0.237316
C17   C     C_2   0.683350 0.689215 0.504593 0.303740
C18   C     C_R   0.993152 0.381459 0.876342 0.742256
C19   C     C_R   0.875027 0.501189 0.876920 0.887351
C20   C     C_R   0.998224 0.618473 0.114556 0.788513
C21   C     C_R   0.113664 0.502433 0.114683 0.850213
C22   C     C_R   0.004807 0.122801 0.616566 0.784144
C23   C     C_R   0.616989 0.618320 0.500413 0.747814
C24   C     C_R   0.118163 0.115943 0.499460 0.674825
C25   C     C_R   0.997449 0.879490 0.383372 0.834256
C26   C     C_R   0.882610 0.879326 0.496475 0.832599
C27   C     C_2   0.986831 0.251144 0.670392 0.346893
C28   C     C_2   0.023376 0.203369 0.685727 0.277977
C29   C     C_2   0.999050 0.323470 0.745151 -0.245810
C30   C     C_2   0.983913 0.310500 0.804517 0.281739
C31   C     C_2   0.012376 0.751344 0.325651 -0.267297
C32   C     C_2   0.986291 0.806086 0.313975 -0.300065
C33   C     C_2   0.998926 0.677886 0.251072 0.310281
C34   C     C_R   0.379445 0.497790 0.380556 0.839758
C35   C     C_2   0.011648 0.689465 0.189360 0.221767
C36   C     C_3   0.685793 0.410272 0.649825 0.185862
C37   C     C_3   0.750672 0.407768 0.724847 0.167921
C38   C     C_3   0.771173 0.575850 0.726129 0.069812
C39   C     C_3   0.662698 0.502993 0.762732 0.176632
C40   C     C_3   0.680889 0.495014 0.687085 -0.127758
Cu1   Cu    Cu3+1 0.500730 0.439000 0.439690 0.977379
Cu2   Cu    Cu3+1 0.499270 0.561000 0.560310 0.938201
Cu3   Cu    Cu3+1 0.933160 0.439090 0.994150 0.963783
Cu4   Cu    Cu3+1 0.055180 0.561040 0.994050 0.949553
Cu5   Cu    Cu3+1 0.061740 0.000000 0.561740 0.957730
Cu6   Cu    Cu3+1 0.938260 0.000000 0.438260 0.965489
H1    H     H_    0.711623 0.412278 0.606312 0.166105
H2    H     H_    0.771644 0.635173 0.765008 0.178927
H3    H     H_    0.890691 0.635372 0.848047 0.203917
H4    H     H_    0.137579 0.111459 0.367864 0.086920
H5    H     H_    0.292715 0.207553 0.398604 0.112148
H6    H     H_    0.113161 0.478311 0.244862 0.176534
H7    H     H_    0.247278 0.534870 0.191481 0.152768
H8    H     H_    0.248437 0.523934 0.379939 0.164051
H9    H     H_    0.303130 0.465051 0.247736 0.153309
H10   H     H_    0.708406 0.773597 0.380079 0.157349
H11   H     H_    0.845112 0.783864 0.533888 0.169506
H12   H     H_    0.618877 0.630363 0.368452 0.118272
H13   H     H_    0.017422 0.386317 0.749732 0.102041
H14   H     H_    0.041049 0.758287 0.389185 0.163851
H15   H     H_    0.714866 0.361827 0.740520 0.105147
H16   H     H_    0.949695 0.793641 0.249106 0.186710
H17   H     H_    0.882778 0.554673 0.758723 0.210034
H18   H     H_    0.656650 0.561993 0.787394 0.133778
H19   H     H_    0.716737 0.468081 0.857316 0.128695
O1    O     O_R   0.411600 0.359460 0.449080 -0.582861
O2    O     O_R   0.046690 0.462500 0.906070 -0.589976
O3    O     O_R   0.852560 0.448570 0.904070 -0.626748
O4    O     O_R   0.955610 0.551560 0.903980 -0.577618
O5    O     O_R   0.941640 0.537630 0.082140 -0.564483
O6    O     O_R   0.044680 0.640620 0.082050 -0.590816
O7    O     O_R   0.032730 0.448570 0.084230 -0.566550
O8    O     O_R   0.135770 0.551560 0.084140 -0.596156
O9    O     O_R   0.051070 0.089000 0.640130 -0.567677
O10   O     O_R   0.946790 0.089000 0.535860 -0.547987
O11   O     O_R   0.141150 0.089030 0.552120 -0.590562
O12   O     O_R   0.410370 0.462480 0.550940 -0.616455
O13   O     O_R   0.036880 0.089030 0.447850 -0.589135
O14   O     O_R   0.053210 0.911000 0.464140 -0.579392
O15   O     O_R   0.948930 0.911000 0.359870 -0.594598
O16   O     O_R   0.963120 0.910970 0.552150 -0.591285
O17   O     O_R   0.858850 0.910970 0.447880 -0.579691
O18   O     O_R   0.590700 0.448490 0.539150 -0.535211
O19   O     O_R   0.589460 0.551510 0.641010 -0.642045
O20   O     O_R   0.589630 0.537520 0.449060 -0.599992
O21   O     O_R   0.588400 0.640540 0.550920 -0.565984
O22   O     O_R   0.410540 0.448490 0.358990 -0.591421
O23   O     O_R   0.409300 0.551510 0.460850 -0.579594
O24   O     O_R   0.943650 0.359510 0.906150 -0.599286
O25   O     O_3   0.787282 0.604284 0.908732 -0.636537
C41   C     C_3   0.806180 0.609648 0.989203 0.059561
H20   H     H_    0.862810 0.675530 0.040872 0.191202
H21   H     H_    0.825565 0.562213 0.996563 0.145356
C42   C     C_3   0.728901 0.597508 0.002349 -0.385439
H22   H     H_    0.707160 0.642456 0.990996 0.229643
H23   H     H_    0.674326 0.529494 0.955613 0.211182
C43   C     C_3   0.752988 0.615364 0.093631 -0.886180
H24   H     H_    0.778068 0.573411 0.107752 0.269045
H25   H     H_    0.694417 0.601337 0.099543 0.254217
H26   H     H_    0.803293 0.684697 0.141750 0.253079
O26   O     O_3   0.263167 0.246707 0.582348 -0.714779
H27   H     H_    0.250733 0.247405 0.628656 0.304775
O27   O     O_3   0.248912 0.345965 0.512842 -0.702662
H28   H     H_    0.275741 0.409893 0.540066 0.329194
O28   O     O_3   0.602388 0.334424 0.597349 -0.725427
H29   H     H_    0.588314 0.310621 0.632517 0.352918
O29   O     O_3   0.742290 0.767428 0.583094 -0.598055
C44   C     C_3   0.789861 0.752741 0.646532 0.064664
H30   H     H_    0.815197 0.711098 0.621020 0.165324
H31   H     H_    0.748307 0.721367 0.668323 0.187511
C45   C     C_3   0.867466 0.839922 0.724749 -0.332048
H32   H     H_    0.910206 0.872147 0.704426 0.225540
H33   H     H_    0.843701 0.882791 0.750800 0.234211
C46   C     C_3   0.920366 0.827794 0.795907 -0.878239
H34   H     H_    0.879457 0.797781 0.818835 0.257468
H35   H     H_    0.976658 0.892066 0.851436 0.252862
H36   H     H_    0.945344 0.785574 0.771476 0.268912
O30   O     O_3   0.932671 0.227565 0.585846 -0.616955
C47   C     C_3   0.956938 0.300363 0.575058 0.023408
H37   H     H_    0.029000 0.338615 0.604751 0.132729
H38   H     H_    0.934386 0.342899 0.604374 0.150750
C48   C     C_3   0.913430 0.268462 0.478362 -0.292174
H39   H     H_    0.934839 0.225280 0.447883 0.232403
H40   H     H_    0.841511 0.230283 0.447691 0.218127
C49   C     C_3   0.936720 0.344354 0.462272 -0.921636
H41   H     H_    0.914604 0.387643 0.491024 0.254274
H42   H     H_    0.904048 0.318982 0.391531 0.259543
H43   H     H_    0.008274 0.382508 0.491010 0.262359
O31   O     O_3   0.084425 0.232051 0.769835 -0.578990
C50   C     C_3   0.167612 0.289688 0.789525 0.026639
H44   H     H_    0.169054 0.347415 0.785278 0.124870
H45   H     H_    0.185560 0.256315 0.744342 0.135980
C51   C     C_3   0.235040 0.321099 0.881773 -0.277141
H46   H     H_    0.217551 0.354014 0.927480 0.219206
H47   H     H_    0.234860 0.264251 0.886867 0.226068
C52   C     C_3   0.326304 0.384506 0.907079 -0.946703
H48   H     H_    0.345506 0.352736 0.862655 0.262997
H49   H     H_    0.373802 0.405572 0.974078 0.258719
H50   H     H_    0.328392 0.442907 0.904575 0.256202
O32   O     O_3   0.949517 0.227100 0.791585 -0.703348
H51   H     H_    0.948498 0.229572 0.843656 0.334250
O33   O     O_3   0.979166 0.599121 0.247451 -0.742619
H52   H     H_    0.972276 0.602726 0.297294 0.324874
O34   O     O_3   0.042152 0.770685 0.196520 -0.642496
C53   C     C_3   0.133906 0.820874 0.251018 0.075123
H53   H     H_    0.164840 0.797017 0.216218 0.161007
H54   H     H_    0.156549 0.818355 0.311720 0.140818
C54   C     C_3   0.163222 0.915652 0.275682 -0.322305
H55   H     H_    0.143562 0.919978 0.216124 0.225815
H56   H     H_    0.130709 0.939199 0.308468 0.217625
C55   C     C_3   0.261743 0.974223 0.336166 -0.917074
H57   H     H_    0.282558 0.972392 0.397039 0.261430
H58   H     H_    0.280544 0.042330 0.352531 0.258733
H59   H     H_    0.295791 0.952841 0.304338 0.256743
O35   O     O_3   0.807667 0.384524 0.703780 -0.630045
C56   C     C_3   0.764978 0.294861 0.641530 0.031457
H60   H     H_    0.807271 0.287051 0.615213 0.186987
H61   H     H_    0.701828 0.272172 0.585204 0.169922
C57   C     C_3   0.752172 0.236945 0.681361 -0.367321
H62   H     H_    0.810345 0.268858 0.746072 0.255917
H63   H     H_    0.694988 0.226901 0.689156 0.196112
C58   C     C_3   0.736698 0.147893 0.624299 -0.812384
H64   H     H_    0.678217 0.114498 0.559050 0.242246
H65   H     H_    0.726055 0.107235 0.654079 0.258908
H66   H     H_    0.794173 0.154880 0.617830 0.292704
O36   O     O_3   0.786241 0.586756 0.662444 -0.768049
H67   H     H_    0.796377 0.540420 0.632761 0.331273
O37   O     O_3   0.587136 0.426036 0.734925 -0.642972
C59   C     C_3   0.513616 0.436089 0.721147 0.081133
H68   H     H_    0.454556 0.370934 0.672164 0.207922
H69   H     H_    0.509877 0.478992 0.694294 0.164876
C60   C     C_3   0.511519 0.469878 0.804579 -0.390219
H70   H     H_    0.517709 0.428185 0.832848 0.230996
H71   H     H_    0.566814 0.537468 0.851653 0.207029
C61   C     C_3   0.427043 0.470363 0.787898 -0.879974
H72   H     H_    0.418567 0.510204 0.757858 0.258948
H73   H     H_    0.429316 0.498844 0.850172 0.249506
H74   H     H_    0.370398 0.403028 0.744510 0.277405

loop_
_geom_bond_atom_site_label_1
_geom_bond_atom_site_label_2
_ccdc_geom_bond_type
C14   H10   S    
O26   H27   S    
C27   C29   S    
C25   O15   A    
C1    O12   A    
Cu1   Cu2   S    
C37   O35   S    
C50   H45   S    
C45   H32   S    
C56   C57   S    
C54   C55   S    
C53   C54   S    
C46   H34   S    
C3    H3    S    
C7    C8    D    
C61   H73   S    
Cu5   Cu6   S    
C39   H18   S    
C17   C23   S    
C36   H1    S    
Cu5   O11   S    
C36   C37   S    
C38   C40   S    
C54   H56   S    
O31   C50   S    
C17   O29   S    
C57   H62   S    
C53   H53   S    
C5    C6    D    
C33   C35   D    
C6    O26   S    
Cu3   O5    S    
Cu1   O18   S    
C21   O8    A    
C44   H30   S    
C12   O19   A    
Cu4   O6    S    
C28   O31   S    
C59   H68   S    
C55   H59   S    
C39   O37   S    
C10   H7    S    
O30   C47   S    
O27   H28   S    
C53   H54   S    
Cu6   O17   S    
C20   C35   S    
C29   H13   S    
C3    C38   S    
C16   C17   D    
C23   O21   A    
C49   H43   S    
O29   C44   S    
C57   H63   S    
C20   O6    A    
C18   C30   S    
C9    C10   D    
C58   H65   S    
C60   C61   S    
C35   O34   S    
C25   C32   S    
C49   H41   S    
C2    C19   S    
C26   O17   A    
C22   C28   S    
C51   H47   S    
C15   H11   S    
C20   O5    A    
Cu4   O8    S    
C9    H6    S    
C22   O10   A    
C52   H50   S    
Cu6   O10   S    
C43   H25   S    
C60   H71   S    
C43   H24   S    
C61   H74   S    
C4    O25   S    
C47   H38   S    
C10   C21   S    
Cu1   O22   S    
O35   C56   S    
C30   O32   S    
C21   O7    A    
C36   C40   S    
Cu2   O19   S    
C54   H55   S    
C52   H49   S    
C41   H20   S    
C5    C7    S    
C24   O11   A    
C15   C26   S    
C34   O23   A    
C42   C43   S    
C18   O2    A    
C12   O18   A    
Cu5   O9    S    
C31   H14   S    
C12   C40   S    
C2    C4    S    
Cu3   Cu4   S    
Cu5   O14   S    
C29   C30   D    
C41   H21   S    
C58   H66   S    
C46   H35   S    
C61   H72   S    
C14   C15   D    
C4    C39   S    
C55   H57   S    
C6    C24   S    
C1    C8    S    
C31   C33   S    
C1    O1    A    
C57   C58   S    
C19   O3    A    
C45   H33   S    
Cu3   O24   S    
O32   H51   S    
C42   H23   S    
C9    C11   S    
C11   H8    S    
C51   C52   S    
Cu2   O21   S    
C24   O13   A    
O37   C59   S    
C16   H12   S    
O36   H67   S    
C59   C60   S    
C14   C16   S    
C5    H4    S    
C19   O4    A    
C50   C51   S    
Cu2   O23   S    
C22   O9    A    
C48   H40   S    
C39   C40   S    
C43   H26   S    
C60   H70   S    
Cu6   O13   S    
C58   H64   S    
C59   H69   S    
C27   O30   S    
C38   O36   S    
Cu3   O7    S    
C56   H60   S    
C36   O28   S    
C25   O14   A    
C18   O24   A    
C38   H2    S    
C31   C32   D    
Cu5   O16   S    
O34   C53   S    
C37   H15   S    
C47   H37   S    
Cu1   O1    S    
C3    H17   S    
C33   O33   S    
C26   O16   A    
Cu1   O20   S    
O28   H29   S    
Cu3   O3    S    
C44   C45   S    
C48   C49   S    
C56   H61   S    
C2    C3    S    
C7    H5    S    
C13   C34   S    
C41   C42   S    
Cu6   O15   S    
C11   C13   D    
C2    C37   S    
O25   C41   S    
C51   H46   S    
C4    H19   S    
C47   C48   S    
C44   H31   S    
C50   H44   S    
C45   C46   S    
C34   O22   A    
C55   H58   S    
C42   H22   S    
C8    O27   S    
C46   H36   S    
C32   H16   S    
Cu2   O12   S    
C23   O20   A    
C27   C28   D    
C49   H42   S    
Cu4   O4    S    
O33   H52   S    
C52   H48   S    
Cu4   O2    S    
C48   H39   S    
C13   H9    S    
