data_mof_unit_pretest_1149.cif
_audit_creation_date              2012-12-11T16:57:15-0500
_audit_creation_method            fapswitch 2.2
_symmetry_space_group_name_H-M    P1
_symmetry_Int_Tables_number       1
_space_group_crystal_system       triclinic
_cell_length_a                    14.493556
_cell_length_b                    16.174552
_cell_length_c                    6.974517
_cell_angle_alpha                 90.0389
_cell_angle_beta                  98.336912
_cell_angle_gamma                 89.976372
_cell_volume                      1617.73520684

loop_
_atom_site_label
_atom_site_type_symbol
_atom_type_description
_atom_site_fract_x
_atom_site_fract_y
_atom_site_fract_z
_atom_type_partial_charge
O1    O     O_R   0.584990 0.413650 0.534420 -0.538812
O2    O     O_R   0.584990 0.586350 0.534420 -0.541183
O3    O     O_R   0.596190 0.585230 0.208380 -0.546764
O4    O     O_R   0.596190 0.414770 0.208380 -0.545770
O5    O     O_R   0.415010 0.586420 0.976930 -0.559873
O6    O     O_R   0.415010 0.413580 0.976930 -0.551018
C1    C     C_R   0.618595 0.614371 0.383771 0.689040
C2    C     C_R   0.618594 0.385627 0.383706 0.700004
O7    O     O_3   0.440560 0.500000 0.319140 -0.356720
V1    V     V_3+5 0.511030 0.500000 0.068070 1.417036
O8    O     O_R   0.403810 0.414840 0.643540 -0.495049
O9    O     O_R   0.403810 0.585160 0.643540 -0.516685
C3    C     C_R   0.381111 0.386307 0.806271 0.651175
C4    C     C_R   0.381119 0.613749 0.806388 0.641147
V2    V     V_3+5 0.488970 0.500000 0.560620 1.514629
O10   O     O_3   0.559440 0.500000 0.859420 -0.382280
H1    H     H_    0.237720 0.842612 0.842501 0.198243
H2    H     H_    0.233417 0.160475 0.838146 0.207243
H3    H     H_    0.330587 0.701597 0.100549 0.144366
H4    H     H_    0.325068 0.302460 0.101504 0.195045
C5    C     C_2   0.312462 0.682696 0.797434 0.297032
C6    C     C_2   0.312851 0.317168 0.797294 0.253930
C7    C     C_2   0.296902 0.723132 0.960649 -0.235356
C8    C     C_2   0.294602 0.278750 0.960911 -0.209347
H5    H     H_    0.187059 0.770480 0.217866 0.244027
H6    H     H_    0.188870 0.227934 0.222325 0.253678
C9    C     C_2   0.188815 0.815028 0.104762 -0.252161
C10   C     C_2   0.188658 0.184969 0.105669 -0.255340
C11   C     C_2   0.238989 0.798975 0.961089 -0.031765
C12   C     C_2   0.236773 0.202734 0.959955 -0.042207
C13   C     C_R   0.685177 0.740266 0.568872 0.128695
C14   C     C_R   0.685107 0.259786 0.568705 0.131823
C15   C     C_R   0.684688 0.685529 0.412631 -0.113218
C16   C     C_R   0.684670 0.314454 0.412513 -0.116957
C17   C     C_R   0.747165 0.702919 0.280606 -0.172720
C18   C     C_R   0.747222 0.297014 0.280625 -0.174369
H7    H     H_    0.749554 0.662899 0.157434 0.136787
H8    H     H_    0.749646 0.336985 0.157508 0.136470
C19   C     C_R   0.811918 0.768655 0.313728 -0.152716
C20   C     C_R   0.812006 0.231293 0.313860 -0.154658
H9    H     H_    0.861701 0.777367 0.214095 0.132730
H10   H     H_    0.861841 0.222522 0.214318 0.131690
C21   C     C_R   0.816748 0.818898 0.480602 -0.110728
C22   C     C_R   0.816783 0.181131 0.480712 -0.110499
C23   C     C_R   0.749469 0.804811 0.602283 0.102723
C24   C     C_R   0.749424 0.195250 0.602221 0.103314
C25   C     C_3   0.761576 0.791915 0.815870 -0.415299
C26   C     C_3   0.761405 0.208219 0.815814 -0.416351
C27   C     C_3   0.691137 0.722017 0.779535 -0.398465
C28   C     C_3   0.690928 0.278113 0.779371 -0.398583
H11   H     H_    0.735903 0.845335 0.893480 0.177601
H12   H     H_    0.735718 0.154832 0.893294 0.178377
H13   H     H_    0.833032 0.770314 0.873420 0.176860
H14   H     H_    0.832824 0.229832 0.873561 0.175813
H15   H     H_    0.624575 0.735236 0.835264 0.175122
H16   H     H_    0.624329 0.264921 0.834905 0.176606
H17   H     H_    0.721521 0.659965 0.816878 0.170833
H18   H     H_    0.721252 0.340174 0.816866 0.169864
O11   O     O_R   0.921430 0.915960 0.371040 -0.542585
O12   O     O_R   0.921430 0.084040 0.371040 -0.542781
O13   O     O_R   0.910450 0.087500 0.697310 -0.546534
O14   O     O_R   0.910450 0.912500 0.697310 -0.546224
O15   O     O_R   0.091710 0.087460 0.928430 -0.541362
O16   O     O_R   0.091710 0.912540 0.928430 -0.540129
C29   C     C_R   0.888100 0.114377 0.519850 0.705133
C30   C     C_R   0.888088 0.885633 0.519781 0.707506
O17   O     O_3   0.065970 0.000000 0.586140 -0.354669
V3    V     V_3+5 0.995640 0.000000 0.837400 1.464855
O18   O     O_R   0.103020 0.915700 0.261710 -0.514635
O19   O     O_R   0.103020 0.084300 0.261710 -0.515100
C31   C     C_R   0.125211 0.886410 0.099142 0.736612
C32   C     C_R   0.125110 0.113623 0.099272 0.733613
V4    V     V_3+5 0.017940 0.000000 0.344880 1.533042
O20   O     O_3   0.947330 1.000000 0.046180 -0.390571
S1    S     S_3+6 0.255135 0.711484 0.566815 -0.048632
O21   O     O_2   0.162967 0.752460 0.578367 -0.336814
O22   O     O_2   0.317924 0.770840 0.481601 -0.383920
O23   O     O_3   0.235060 0.627400 0.424185 -0.503500
H19   H     H_    0.287320 0.624694 0.347677 0.341472
S2    S     S_3+6 0.258348 0.284753 0.567214 -0.057091
O24   O     O_2   0.313297 0.213068 0.505883 -0.349295
O25   O     O_2   0.159655 0.257702 0.574945 -0.362264
O26   O     O_3   0.256718 0.361342 0.403603 -0.508385
H20   H     H_    0.215090 0.404049 0.446305 0.345249

loop_
_geom_bond_atom_site_label_1
_geom_bond_atom_site_label_2
_ccdc_geom_bond_type
C9    C11   D    
O1    C2    A    
H1    C11   S    
V4    O20   S    
C17   C19   A    
O2    C1    A    
O4    C2    A    
C19   H9    S    
C26   H14   S    
C7    C11   S    
C4    C5    S    
C17   H7    S    
O3    C1    A    
O11   C30   A    
V3    O20   S    
V2    O10   S    
O12   V4    S    
C27   H17   S    
O16   C31   A    
O18   C31   A    
O8    V2    S    
H4    C8    S    
C10   C12   D    
C13   C15   A    
O18   V4    S    
O1    V2    S    
O7    V1    S    
O11   V4    S    
C25   H13   S    
C26   C28   S    
C1    C15   S    
C22   C29   S    
C10   C32   S    
C13   C27   S    
S2    O26   S    
C25   C27   S    
C22   C24   A    
C23   C25   S    
C24   C26   S    
O14   C30   A    
O17   V3    S    
C28   H18   S    
C18   C20   A    
S2    O25   D    
O23   H19   S    
C19   C21   A    
C27   H15   S    
C28   H16   S    
C14   C16   A    
H3    C7    S    
S1    O21   D    
C21   C23   A    
O26   H20   S    
O9    V2    S    
C20   C22   A    
O19   V4    S    
C2    C16   S    
O2    V2    S    
S1    O22   D    
C14   C28   S    
O5    C4    A    
H2    C12   S    
O17   V4    S    
O9    C4    A    
O12   C29   A    
C5    C7    D    
C6    C8    D    
O4    V1    S    
O16   V3    S    
C9    C31   S    
O15   V3    S    
C14   C24   A    
S2    O24   D    
O6    V1    S    
C25   H11   S    
H5    C9    S    
C5    S1    S    
H6    C10   S    
O14   V3    S    
C18   H8    S    
O7    V2    S    
C6    S2    S    
O5    V1    S    
O3    V1    S    
V1    O10   S    
O6    C3    A    
O8    C3    A    
O13   V3    S    
C21   C30   S    
C20   H10   S    
C15   C17   A    
C3    C6    S    
C16   C18   A    
S1    O23   S    
C8    C12   S    
O13   C29   A    
C26   H12   S    
O15   C32   A    
C13   C23   A    
O19   C32   A    
