data_mof_unit_pretest_166.cif
_audit_creation_date              2012-12-11T17:25:11-0500
_audit_creation_method            fapswitch 2.2
_symmetry_space_group_name_H-M    P1
_symmetry_Int_Tables_number       1
_space_group_crystal_system       triclinic
_cell_length_a                    6.953941
_cell_length_b                    20.50766
_cell_length_c                    24.495505
_cell_angle_alpha                 90.154957
_cell_angle_beta                  90.417028
_cell_angle_gamma                 89.501504
_cell_volume                      3493.04395873

loop_
_atom_site_label
_atom_site_type_symbol
_atom_type_description
_atom_site_fract_x
_atom_site_fract_y
_atom_site_fract_z
_atom_type_partial_charge
O1    O     O_R   0.507280 0.423750 0.460310 -0.539138
O2    O     O_R   0.171030 0.555650 0.437630 -0.531362
O3    O     O_R   0.004080 0.576250 0.539690 -0.541047
C1    C     C_R   0.339138 0.575686 0.421841 0.721524
O4    O     O_R   0.177330 0.422980 0.453960 -0.534001
O5    O     O_R   0.010420 0.442640 0.556140 -0.537496
C2    C     C_R   0.346141 0.398963 0.443409 0.729110
O6    O     O_R   0.500930 0.557360 0.443860 -0.530492
O7    O     O_3   0.340310 0.506600 0.533500 -0.374060
V1    V     V_3+5 0.064140 0.498780 0.493780 1.444577
O8    O     O_R   0.680890 0.444350 0.562370 -0.539863
C3    C     C_R   0.850533 0.424413 0.578159 0.718005
O9    O     O_R   0.674590 0.577020 0.546040 -0.538563
C4    C     C_R   0.842604 0.601162 0.556591 0.760433
V2    V     V_3+5 0.564550 0.501220 0.506220 1.429805
O10   O     O_3   0.838250 0.493400 0.466500 -0.364010
C5    C     C_R   0.975339 0.837157 0.911681 -0.208435
C6    C     C_R   0.846419 0.662445 0.588538 -0.145597
C7    C     C_R   0.040881 0.720628 0.906650 0.434014
C8    C     C_R   0.022100 0.778056 0.937514 0.362593
C9    C     C_R   0.935601 0.837658 0.855454 -0.270257
C10   C     C_R   0.950370 0.780078 0.822946 -0.022954
C11   C     C_R   0.014062 0.721536 0.848943 -0.139059
C12   C     C_R   0.907898 0.779311 0.765357 0.098710
C13   C     C_R   0.939153 0.721163 0.733993 0.014121
C14   C     C_R   0.020568 0.666794 0.760467 -0.295434
C15   C     C_R   0.051296 0.665208 0.817052 0.501545
C16   C     C_R   0.833750 0.834763 0.738034 -0.162693
C17   C     C_R   0.792800 0.833658 0.682478 -0.186154
C18   C     C_R   0.817652 0.776885 0.651818 0.075907
C19   C     C_R   0.889979 0.719389 0.676820 0.120081
C20   C     C_R   0.765748 0.777206 0.596358 -0.251010
C21   C     C_R   0.774308 0.720035 0.565026 0.447568
C22   C     C_R   0.903599 0.662129 0.643789 -0.302104
H1    H     H_    0.949520 0.615763 0.660113 0.118271
H2    H     H_    0.736025 0.877578 0.663532 0.123674
H3    H     H_    0.066579 0.624640 0.737745 0.134198
H4    H     H_    0.802397 0.880063 0.758510 0.118434
H5    H     H_    0.619245 0.203162 0.791230 0.111661
C23   C     C_R   0.729986 0.268084 0.730280 -0.156081
H6    H     H_    0.588051 0.281447 0.715365 0.110900
C24   C     C_R   0.894213 0.295146 0.706550 0.136341
C25   C     C_R   0.076466 0.276870 0.726686 -0.156868
H7    H     H_    0.205011 0.297124 0.708948 0.111505
C26   C     C_R   0.094272 0.232207 0.769904 -0.155817
H8    H     H_    0.236210 0.218834 0.784811 0.110981
C27   C     C_R   0.930047 0.205122 0.793619 0.136665
C28   C     C_R   0.747791 0.223423 0.773499 -0.155958
C29   C     C_1   0.876219 0.341148 0.661518 -0.062085
C30   C     C_1   0.948042 0.159011 0.838578 -0.061048
C31   C     C_1   0.961236 0.120752 0.876317 -0.190081
C32   C     C_1   0.863012 0.379304 0.623708 -0.190306
H9    H     H_    0.614739 0.755879 0.334357 0.160791
C33   C     C_R   0.547154 0.802566 0.255994 0.421687
C34   C     C_R   0.427556 0.798927 0.209271 -0.133544
C35   C     C_R   0.278740 0.752203 0.207043 0.339458
C36   C     C_R   0.257287 0.706495 0.249611 0.408121
C37   C     C_R   0.380542 0.708067 0.295401 -0.089785
C38   C     C_R   0.522232 0.756200 0.298673 -0.382122
C39   C     C_1   0.456496 0.843540 0.163353 0.098145
C40   C     C_1   0.362330 0.660536 0.339491 0.055208
C41   C     C_1   0.348862 0.621505 0.376653 -0.195692
C42   C     C_1   0.474436 0.880512 0.124848 -0.201119
C43   C     C_R   0.469463 0.161918 0.088757 -0.045342
C44   C     C_R   0.351122 0.338211 0.411189 -0.137528
C45   C     C_R   0.479330 0.279521 0.091463 -0.127309
C46   C     C_R   0.489752 0.221424 0.062134 -0.166900
C47   C     C_R   0.441029 0.160817 0.145508 -0.188141
C48   C     C_R   0.428889 0.219702 0.176541 0.082725
C49   C     C_R   0.448835 0.279176 0.148110 0.069059
C50   C     C_R   0.395371 0.221642 0.234280 0.005185
C51   C     C_R   0.392826 0.282908 0.263232 -0.013207
C52   C     C_R   0.402068 0.341615 0.232176 0.442272
C53   C     C_R   0.430830 0.338373 0.175564 -0.273647
C54   C     C_R   0.356687 0.164197 0.263580 -0.173144
C55   C     C_R   0.316925 0.165515 0.318846 -0.164144
C56   C     C_R   0.323805 0.223551 0.348592 0.032688
C57   C     C_R   0.371416 0.282765 0.321917 0.051162
C58   C     C_R   0.285348 0.222633 0.405176 0.466371
C59   C     C_R   0.290209 0.280610 0.435234 -0.243722
C60   C     C_R   0.398614 0.338707 0.355617 -0.175031
H10   H     H_    0.283180 0.119813 0.338543 0.164625
H11   H     H_    0.493867 0.325092 0.069622 0.115573
H12   H     H_    0.512392 0.222890 0.018437 0.104594
H13   H     H_    0.431036 0.113319 0.163853 0.090527
O11   O     O_R   0.323320 0.942780 0.056240 -0.528833
O12   O     O_R   0.647300 0.077050 0.046060 -0.537019
O13   O     O_R   0.813840 0.057330 0.943840 -0.535508
C61   C     C_R   0.478323 0.101036 0.056764 0.693104
O14   O     O_R   0.653250 0.944380 0.062400 -0.544508
O15   O     O_R   0.819830 0.923720 0.960300 -0.544469
C62   C     C_R   0.485083 0.924647 0.078444 0.722861
O16   O     O_R   0.317330 0.076390 0.039790 -0.536338
O17   O     O_3   0.483830 0.993470 0.966560 -0.367105
V3    V     V_3+5 0.760140 0.001210 0.006210 1.415953
O18   O     O_R   0.149290 0.922840 0.953850 -0.528887
C63   C     C_R   0.980952 0.898993 0.942997 0.764936
O19   O     O_R   0.143340 0.055500 0.937510 -0.539756
C64   C     C_R   0.973711 0.075534 0.921795 0.720608
V4    V     V_3+5 0.259690 0.998600 0.993650 1.444517
O20   O     O_3   0.986130 0.006520 0.033440 -0.369885
O21   O     O_3   0.139341 0.611014 0.840742 -0.520576
C65   C     C_3   0.035783 0.553588 0.828919 -0.215839
H14   H     H_    0.082834 0.532273 0.789450 0.128310
H15   H     H_    0.876979 0.561557 0.828787 0.116552
H16   H     H_    0.068869 0.517167 0.861118 0.164238
H17   H     H_    0.715018 0.821904 0.577386 0.127593
O22   O     O_3   0.689202 0.850412 0.255965 -0.555218
C66   C     C_3   0.771431 0.862649 0.307724 -0.268605
H18   H     H_    0.870232 0.822229 0.319808 0.130747
H19   H     H_    0.659474 0.871924 0.339112 0.149291
H20   H     H_    0.859382 0.907367 0.304973 0.165766
O23   O     O_3   0.155324 0.748855 0.162522 -0.523185
C67   C     C_3   0.025303 0.802362 0.163474 -0.187959
H21   H     H_    0.066927 0.838462 0.132160 0.149531
H22   H     H_    0.014147 0.827562 0.203768 0.141205
H23   H     H_    0.879539 0.784571 0.152886 0.155440
O24   O     O_3   0.123796 0.657239 0.244226 -0.527084
C68   C     C_3   0.950796 0.677795 0.268753 -0.176104
H24   H     H_    0.887496 0.720306 0.246942 0.154376
H25   H     H_    0.971288 0.689544 0.312791 0.114338
H26   H     H_    0.845759 0.637499 0.265973 0.164989
H27   H     H_    0.431184 0.382966 0.151995 0.138373
H28   H     H_    0.458801 0.383138 0.340486 0.165898
H29   H     H_    0.249036 0.280363 0.477827 0.125568
O25   O     O_3   0.346691 0.400840 0.255040 -0.554332
C69   C     C_3   0.485745 0.449362 0.245442 -0.253332
H30   H     H_    0.460547 0.472923 0.205246 0.164371
H31   H     H_    0.635952 0.430203 0.248587 0.133949
H32   H     H_    0.469704 0.487890 0.277019 0.166801
H33   H     H_    0.348928 0.116916 0.244598 0.123159
O26   O     O_3   0.226970 0.165806 0.430220 -0.556982
C70   C     C_3   0.380882 0.141223 0.462059 -0.270047
H34   H     H_    0.414581 0.174263 0.496864 0.141595
H35   H     H_    0.511447 0.132561 0.436877 0.141959
H36   H     H_    0.338038 0.093622 0.479360 0.168098
O27   O     O_3   0.724502 0.720963 0.510190 -0.561906
C71   C     C_3   0.523181 0.728063 0.505084 -0.236610
H37   H     H_    0.474428 0.777342 0.518340 0.131536
H38   H     H_    0.445997 0.689667 0.528133 0.139393
H39   H     H_    0.483333 0.722610 0.461392 0.155835
O28   O     O_3   0.094491 0.664004 0.933552 -0.506992
C72   C     C_3   0.926857 0.631712 0.950566 -0.105196
H40   H     H_    0.821298 0.625199 0.916613 0.105094
H41   H     H_    0.857662 0.657932 0.984987 0.130693
H42   H     H_    0.968283 0.582443 0.965338 0.152273
O29   O     O_3   0.063572 0.775785 0.992887 -0.534162
C73   C     C_3   0.893276 0.784661 0.023383 -0.201240
H43   H     H_    0.757228 0.776546 0.999922 0.102873
H44   H     H_    0.890688 0.834395 0.041256 0.141960
H45   H     H_    0.895033 0.749261 0.057490 0.180833
H46   H     H_    0.901450 0.884557 0.838078 0.126595

loop_
_geom_bond_atom_site_label_1
_geom_bond_atom_site_label_2
_ccdc_geom_bond_type
C13   C19   A    
C72   H42   S    
C50   C54   A    
C34   C35   A    
O25   C69   S    
C52   C53   A    
C4    C6    S    
O2    C1    A    
C7    C8    A    
C73   H45   S    
C1    O6    A    
C67   H21   S    
H9    C38   S    
O14   V3    S    
C26   H8    S    
O22   C66   S    
C17   H2    S    
C14   C15   A    
C39   C42   T    
C43   C47   A    
C16   C17   A    
C73   H44   S    
C66   H19   S    
O5    C3    A    
C18   C19   A    
C9    H46   S    
C59   H29   S    
C72   H40   S    
C1    C41   S    
C5    C8    A    
C35   C36   A    
C72   H41   S    
C22   H1    S    
C26   C27   A    
C48   C50   A    
O24   C68   S    
C51   C57   A    
C45   H11   S    
O8    V2    S    
O29   C73   S    
C21   O27   S    
O26   C70   S    
C20   H17   S    
O12   V3    S    
C42   C62   S    
C49   C53   A    
C70   H36   S    
C35   O23   S    
O1    V2    S    
C11   C15   A    
O11   V4    S    
O7    V1    S    
C40   C41   T    
C34   C39   S    
C37   C40   S    
C23   C24   A    
C45   C46   A    
O13   V3    S    
C46   H12   S    
C44   C59   A    
O9    C4    A    
C61   O16   A    
C47   H13   S    
C48   C49   A    
C43   C61   S    
C3    C32   S    
C54   H33   S    
C27   C30   S    
C33   C38   A    
C68   H25   S    
C31   C64   S    
O14   C62   A    
C19   C22   A    
O28   C72   S    
V2    O10   S    
C60   H28   S    
O21   C65   S    
C67   H23   S    
C43   C46   A    
C56   C58   A    
C12   C13   A    
C66   H20   S    
C55   H10   S    
O4    C2    A    
C47   C48   A    
C13   C14   A    
C56   C57   A    
C5    C9    A    
C7    C11   A    
C54   C55   A    
C69   H31   S    
C17   C18   A    
C2    C44   S    
C6    C22   A    
C44   C60   A    
C27   C28   A    
O17   V4    S    
C68   H24   S    
C29   C32   T    
O18   C63   A    
C30   C31   T    
C8    O29   S    
C65   H15   S    
C55   C56   A    
C25   C26   A    
O16   V4    S    
O3    C4    A    
C71   H38   S    
C23   H6    S    
C7    O28   S    
O19   V4    S    
O12   C61   A    
C25   H7    S    
C70   H34   S    
C10   C12   A    
C24   C25   A    
C69   H30   S    
O2    V1    S    
O23   C67   S    
C68   H26   S    
C23   C28   A    
C33   C34   A    
O1    C2    A    
C12   C16   A    
C51   C52   A    
C71   H39   S    
O5    V1    S    
C67   H22   S    
O8    C3    A    
C14   H3    S    
O6    V2    S    
O27   C71   S    
C15   O21   S    
C33   O22   S    
C20   C21   A    
O9    V2    S    
C37   C38   A    
C69   H32   S    
O4    V1    S    
O3    V1    S    
V1    O10   S    
C66   H18   S    
C18   C20   A    
O15   C63   A    
C57   C60   A    
C36   C37   A    
C45   C49   A    
C58   O26   S    
O18   V4    S    
V4    O20   S    
C53   H27   S    
C65   H16   S    
C73   H43   S    
O7    V2    S    
O17   V3    S    
C6    C21   A    
O13   C64   A    
C71   H37   S    
C24   C29   S    
O15   V3    S    
C58   C59   A    
V3    O20   S    
C50   C51   A    
O19   C64   A    
C65   H14   S    
C70   H35   S    
C10   C11   A    
H5    C28   S    
O11   C62   A    
C16   H4    S    
C9    C10   A    
C5    C63   S    
C52   O25   S    
C36   O24   S    
