data_mof_unit_pretest_1515.cif
_audit_creation_date              2012-12-11T17:32:21-0500
_audit_creation_method            fapswitch 2.2
_symmetry_space_group_name_H-M    P1
_symmetry_Int_Tables_number       1
_space_group_crystal_system       triclinic
_cell_length_a                    25.122483
_cell_length_b                    7.029957
_cell_length_c                    22.641192
_cell_angle_alpha                 89.58717
_cell_angle_beta                  96.01235
_cell_angle_gamma                 90.622092
_cell_volume                      3976.3566696

loop_
_atom_site_label
_atom_site_type_symbol
_atom_type_description
_atom_site_fract_x
_atom_site_fract_y
_atom_site_fract_z
_atom_type_partial_charge
O1    O     O_R   0.192910 0.385540 0.193970 -0.537627
O2    O     O_R   0.807090 0.614460 0.806030 -0.537628
O3    O     O_R   0.307090 0.885540 0.306030 -0.532527
O4    O     O_R   0.692910 0.114460 0.693970 -0.532527
O5    O     O_R   0.301190 0.713810 0.192110 -0.515016
O6    O     O_R   0.698810 0.286190 0.807890 -0.515017
O7    O     O_R   0.198810 0.213810 0.307890 -0.513266
O8    O     O_R   0.801190 0.786190 0.692110 -0.513266
C1    C     C_R   0.318478 0.547341 0.177899 0.733214
C2    C     C_R   0.681522 0.452659 0.822101 0.733215
C3    C     C_R   0.179677 0.046361 0.319935 0.728885
C4    C     C_R   0.820322 0.953639 0.680065 0.728885
O9    O     O_R   0.192950 0.715160 0.186970 -0.533698
O10   O     O_R   0.807050 0.284840 0.813030 -0.533698
O11   O     O_R   0.307050 0.215160 0.313030 -0.530051
O12   O     O_R   0.692950 0.784840 0.686970 -0.530051
O13   O     O_R   0.198080 0.886920 0.300850 -0.545352
O14   O     O_R   0.801920 0.113080 0.699150 -0.545352
O15   O     O_R   0.301920 0.386920 0.199150 -0.544993
O16   O     O_R   0.698080 0.613080 0.800850 -0.544994
C5    C     C_R   0.174172 0.546192 0.171578 0.684052
C6    C     C_R   0.825828 0.453808 0.828422 0.684052
C7    C     C_R   0.326007 0.046774 0.328197 0.724398
C8    C     C_R   0.673992 0.953226 0.671803 0.724398
O17   O     O_3   0.251810 0.552510 0.287370 -0.362169
O18   O     O_3   0.748190 0.447490 0.712630 -0.362169
O19   O     O_3   0.248190 0.052510 0.212630 -0.367202
O20   O     O_3   0.751810 0.947490 0.787370 -0.367202
V1    V     V_3+5 0.249660 0.826790 0.243070 1.477681
V2    V     V_3+5 0.750340 0.173210 0.756930 1.477680
V3    V     V_3+5 0.250340 0.326790 0.256930 1.479272
V4    V     V_3+5 0.749660 0.673210 0.743070 1.479272
H1    H     H_    0.479774 0.742697 0.426384 0.185602
H2    H     H_    0.520226 0.257303 0.573616 0.185602
H3    H     H_    0.019688 0.238525 0.072931 0.184152
H4    H     H_    0.980312 0.761475 0.927069 0.184152
C9    C     C_R   0.532843 0.839346 0.501388 0.314069
C10   C     C_R   0.467157 0.160653 0.498612 0.314069
C11   C     C_R   0.966770 0.337805 0.998253 0.312866
C12   C     C_R   0.033230 0.662195 0.001747 0.312866
C13   C     C_R   0.544791 0.984595 0.543431 0.001894
C14   C     C_R   0.455209 0.015405 0.456569 0.001894
C15   C     C_R   0.955134 0.485447 0.956615 0.003462
C16   C     C_R   0.044866 0.514553 0.043385 0.003462
C17   C     C_R   0.511594 0.144465 0.541577 -0.167974
C18   C     C_R   0.488406 0.855535 0.458423 -0.167974
C19   C     C_R   0.988708 0.646841 0.958813 -0.171985
C20   C     C_R   0.011292 0.353159 0.041187 -0.171985
C21   C     C_1   0.590650 0.971952 0.588520 0.079504
C22   C     C_1   0.409350 0.028048 0.411480 0.079504
C23   C     C_1   0.909234 0.473514 0.911562 0.071674
C24   C     C_1   0.090766 0.526486 0.088438 0.071674
C25   C     C_1   0.371248 0.037539 0.373709 -0.131356
C26   C     C_1   0.628752 0.962461 0.626291 -0.131356
C27   C     C_1   0.128908 0.535976 0.126157 -0.146818
C28   C     C_1   0.871092 0.464023 0.873843 -0.146818
C29   C     C_R   0.082505 0.189517 0.431190 -0.177403
C30   C     C_R   0.917495 0.810483 0.568810 -0.177403
C31   C     C_R   0.408620 0.674806 0.056057 -0.176252
C32   C     C_R   0.591379 0.325194 0.943943 -0.176252
H5    H     H_    0.072400 0.314623 0.454978 0.193454
H6    H     H_    0.927600 0.685377 0.545022 0.193454
H7    H     H_    0.414522 0.789837 0.025193 0.176461
H8    H     H_    0.585478 0.210163 0.974807 0.176461
C33   C     C_R   0.118024 0.204283 0.387171 0.297033
C34   C     C_R   0.881976 0.795717 0.612829 0.297033
C35   C     C_R   0.367845 0.688534 0.094139 0.291106
C36   C     C_R   0.632155 0.311466 0.905861 0.291105
C37   C     C_R   0.135519 0.039073 0.360153 -0.131422
C38   C     C_R   0.864481 0.960927 0.639847 -0.131422
C39   C     C_R   0.359746 0.538489 0.134720 -0.129201
C40   C     C_R   0.640254 0.461511 0.865280 -0.129201
C41   C     C_R   0.106514 0.871256 0.367446 -0.272774
C42   C     C_R   0.893486 0.128744 0.632554 -0.272774
C43   C     C_R   0.392421 0.376684 0.134503 -0.250782
C44   C     C_R   0.607579 0.623316 0.865497 -0.250782
H9    H     H_    0.113420 0.754561 0.339952 0.162793
H10   H     H_    0.886580 0.245439 0.660048 0.162793
H11   H     H_    0.387279 0.259825 0.164897 0.172630
H12   H     H_    0.612721 0.740175 0.835103 0.172630
C45   C     C_R   0.065840 0.860922 0.405621 0.292349
C46   C     C_R   0.934160 0.139078 0.594379 0.292349
C47   C     C_R   0.432704 0.364041 0.096253 0.290445
C48   C     C_R   0.567296 0.635959 0.903747 0.290445
C49   C     C_R   0.056301 0.017509 0.440625 0.017162
C50   C     C_R   0.943699 0.982491 0.559375 0.017162
C51   C     C_R   0.441118 0.513871 0.056776 0.013078
C52   C     C_R   0.558882 0.486129 0.943224 0.013078
C53   C     C_1   0.016641 0.006255 0.482598 0.114569
C54   C     C_1   0.983359 0.993745 0.517402 0.114569
C55   C     C_1   0.482660 0.504178 0.016703 0.102870
C56   C     C_1   0.517340 0.495821 0.983297 0.102870
Br1   Br    Br    0.576231 0.616585 0.501118 -0.508051
Br2   Br    Br    0.423769 0.383415 0.498882 -0.508051
Br3   Br    Br    0.922829 0.112867 0.997985 -0.532690
Br4   Br    Br    0.077171 0.887133 0.002015 -0.532690
N1    N     N_2   0.128942 0.385266 0.363299 -0.498080
H13   H     H_    0.127959 0.495433 0.392766 0.270263
C57   C     C_3   0.101469 0.418703 0.304177 -0.429345
H14   H     H_    0.061123 0.477451 0.307089 0.221562
H15   H     H_    0.096313 0.286621 0.277431 0.171075
H16   H     H_    0.125366 0.518881 0.279376 0.170990
N2    N     N_2   0.871058 0.614734 0.636701 -0.498080
H17   H     H_    0.872041 0.504567 0.607234 0.270263
C58   C     C_3   0.898531 0.581297 0.695823 -0.429345
H18   H     H_    0.938877 0.522549 0.692911 0.221562
H19   H     H_    0.874634 0.481119 0.720624 0.170989
H20   H     H_    0.903687 0.713379 0.722569 0.171075
N3    N     N_2   0.335013 0.852851 0.090669 -0.509831
H21   H     H_    0.354385 0.975210 0.078773 0.273756
C59   C     C_3   0.283796 0.827278 0.055864 -0.457090
H22   H     H_    0.289656 0.801422 0.008615 0.195654
H23   H     H_    0.259600 0.957627 0.058482 0.205943
H24   H     H_    0.261267 0.705729 0.073116 0.184254
N4    N     N_2   0.664987 0.147149 0.909331 -0.509831
H25   H     H_    0.645615 0.024790 0.921227 0.273756
C60   C     C_3   0.716204 0.172722 0.944136 -0.457089
H26   H     H_    0.710344 0.198578 0.991385 0.195654
H27   H     H_    0.738733 0.294271 0.926884 0.184254
H28   H     H_    0.740400 0.042373 0.941518 0.205943
Br5   Br    Br    0.019916 0.641220 0.405786 -0.579350
Br6   Br    Br    0.980084 0.358780 0.594214 -0.579350
Br7   Br    Br    0.475949 0.140096 0.099882 -0.545865
Br8   Br    Br    0.524051 0.859904 0.900118 -0.545865

loop_
_geom_bond_atom_site_label_1
_geom_bond_atom_site_label_2
_ccdc_geom_bond_type
O17   V3    S    
C12   C19   A    
C47   C51   A    
C30   H6    S    
C51   C55   S    
O19   V1    S    
O13   V1    S    
O3    C7    A    
C59   H22   S    
C40   C44   A    
O15   V3    S    
C44   C48   A    
N1    H13   S    
C32   C52   A    
O1    C5    A    
C58   H19   S    
O9    V1    S    
O10   V2    S    
C10   C14   A    
N3    C59   S    
O4    C8    A    
C8    C26   S    
C21   C26   T    
O1    V3    S    
H4    C19   S    
O2    V4    S    
C23   C28   T    
C14   C18   A    
C41   C45   A    
O3    V1    S    
C38   C42   A    
C10   C17   A    
C31   C35   A    
C35   N3    S    
C52   C56   S    
C1    O15   A    
C2    O16   A    
N4    C60   S    
O2    C6    A    
C37   C41   A    
O14   V2    S    
C24   C27   T    
C36   C40   A    
C16   C24   S    
O11   C7    A    
O12   C8    A    
H1    C18   S    
C12   Br4   S    
H3    C20   S    
C30   C50   A    
C13   C21   S    
N1    C57   S    
C30   C34   A    
C45   C49   A    
C7    C25   S    
O5    V1    S    
O17   V1    S    
C58   H20   S    
C22   C25   T    
O7    V3    S    
O9    C5    A    
O8    V4    S    
C48   C52   A    
O20   V4    S    
C59   H23   S    
C50   C54   S    
C60   H28   S    
C55   C56   T    
C5    C27   S    
C49   C53   S    
O18   V4    S    
C11   C15   A    
C46   C50   A    
O19   V3    S    
O4    V2    S    
C45   Br5   S    
O7    C3    A    
O5    C1    A    
C57   H14   S    
O8    C4    A    
C10   Br2   S    
C9    Br1   S    
N2    C58   S    
H2    C17   S    
O11   V3    S    
C11   Br3   S    
C14   C22   S    
O6    V2    S    
O18   V2    S    
C1    C39   S    
C48   Br8   S    
O16   V4    S    
C4    C38   S    
C3    O13   A    
C41   H9    S    
C57   H15   S    
C34   N2    S    
C44   H12   S    
C29   C33   A    
O6    C2    A    
C6    C28   S    
C3    C37   S    
C29   H5    S    
O12   V4    S    
C58   H18   S    
C31   H7    S    
C32   H8    S    
O10   C6    A    
C60   H27   S    
C53   C54   T    
C33   N1    S    
C60   H26   S    
C39   C43   A    
C43   C47   A    
C34   C38   A    
C15   C19   A    
C15   C23   S    
C33   C37   A    
O20   V2    S    
C29   C49   A    
C59   H24   S    
C35   C39   A    
C9    C13   A    
C31   C51   A    
C36   N4    S    
C16   C20   A    
C12   C16   A    
C57   H16   S    
C32   C36   A    
C42   H10   S    
C4    O14   A    
N2    H17   S    
C13   C17   A    
C47   Br7   S    
C9    C18   A    
N3    H21   S    
C43   H11   S    
C46   Br6   S    
C42   C46   A    
N4    H25   S    
C11   C20   A    
C2    C40   S    
