data_mof_unit_pretest_1686.cif
_audit_creation_date              2012-12-10T16:48:52-0500
_audit_creation_method            fapswitch 2.2
_symmetry_space_group_name_H-M    P1
_symmetry_Int_Tables_number       1
_space_group_crystal_system       triclinic
_cell_length_a                    18.400129
_cell_length_b                    18.455293
_cell_length_c                    18.416198
_cell_angle_alpha                 119.851236
_cell_angle_beta                  119.570373
_cell_angle_gamma                 90.461434
_cell_volume                      4442.77028515

loop_
_atom_site_label
_atom_site_type_symbol
_atom_type_description
_atom_site_fract_x
_atom_site_fract_y
_atom_site_fract_z
_atom_type_partial_charge
C1    C     C_R   0.138433 0.361589 0.998657 0.833754
C2    C     C_2   0.803091 0.690854 0.998684 -0.285899
C3    C     C_2   0.721340 0.281061 0.443872 -0.159591
C4    C     C_R   0.861126 0.638139 0.999799 0.856435
C5    C     C_2   0.696789 0.192274 0.387671 -0.290495
C6    C     C_2   0.780051 0.337219 0.556266 -0.158119
C7    C     C_2   0.803235 0.304560 0.612310 -0.287782
C8    C     C_2   0.332929 0.276944 0.043328 -0.221801
C9    C     C_2   0.304785 0.192360 0.010866 0.089413
C10   C     C_2   0.280508 0.336073 0.055170 -0.153802
C11   C     C_2   0.192215 0.305341 0.988946 -0.261895
C12   C     C_3   0.777483 0.359607 0.077493 0.447889
C13   C     C_2   0.216921 0.788875 0.951060 0.660428
C14   C     C_2   0.303617 0.799950 0.994365 -0.435374
C15   C     C_2   0.161292 0.727281 0.944869 -0.244512
C16   C     C_R   0.138267 0.637879 0.277177 0.853844
C17   C     C_2   0.195814 0.704129 0.009801 -0.393915
C18   C     C_2   0.219595 0.771945 0.557482 -0.233074
C19   C     C_2   0.308284 0.800655 0.612397 -0.329689
C20   C     C_2   0.163236 0.706655 0.445638 0.230686
C21   C     C_2   0.193372 0.696201 0.388397 -0.325542
C22   C     C_R   0.638841 0.138372 0.276930 0.849579
C23   C     C_3   0.799705 0.301816 0.999510 -0.071803
C24   C     C_R   0.361801 0.860994 0.722986 0.865789
C25   C     C_R   0.638924 0.861845 0.000343 0.850144
C26   C     C_R   0.361272 0.138270 0.001342 0.789607
C27   C     C_R   0.359231 0.859293 0.999631 0.900700
C28   C     C_R   0.861203 0.361453 0.723067 0.859067
C29   C     C_R   0.640103 0.141337 0.998683 0.821039
C30   C     C_R   0.140566 0.641782 0.001375 0.904570
C31   C     C_R   0.858669 0.358876 0.000212 0.874332
C32   C     C_3   0.711495 0.241646 0.890785 0.316036
C33   C     C_3   0.650326 0.180079 0.888591 -0.008494
C34   C     C_3   0.696390 0.199403 0.997328 -0.027391
C35   C     C_3   0.846483 0.241941 0.028977 -0.490737
C36   C     C_3   0.157837 0.081201 0.902656 -0.720628
C37   C     C_3   0.068258 0.570285 0.383492 -0.659682
C38   C     C_3   0.667971 0.044694 0.765649 -0.762444
C39   C     C_3   0.642931 0.394701 0.146190 -0.719923
C40   C     C_3   0.786973 0.183682 0.030396 -0.445766
C41   C     C_3   0.717163 0.300162 0.076957 -0.077837
C42   C     C_2   0.721286 0.777063 0.939792 -0.160511
C43   C     C_2   0.697008 0.809237 0.004479 -0.290434
C44   C     C_2   0.780073 0.723480 0.942593 -0.157301
F1    F     F_    0.667631 0.293892 0.863606 -0.702281
F2    F     F_    0.177366 0.832855 0.909427 -0.648149
F3    F     F_    0.854705 0.414305 0.175322 -0.691347
H1    H     H_    0.727597 0.203672 0.834904 0.154585
H2    H     H_    0.719860 0.156229 0.421552 0.151628
H3    H     H_    0.803896 0.408281 0.593651 0.177396
H4    H     H_    0.778995 0.234597 0.578310 0.151656
H5    H     H_    0.397354 0.304684 0.062947 0.155756
H6    H     H_    0.315703 0.406233 0.116393 0.175966
H7    H     H_    0.157592 0.237019 0.922786 0.185364
H8    H     H_    0.335317 0.762844 0.024115 0.117521
H9    H     H_    0.090413 0.701798 0.886454 0.205745
H10   H     H_    0.265221 0.733131 0.073094 0.158020
H11   H     H_    0.186504 0.793364 0.595993 0.184537
H12   H     H_    0.754511 0.312295 0.153777 0.209953
H13   H     H_    0.589618 0.198850 0.871637 0.138842
H14   H     H_    0.343738 0.776724 0.577349 0.154461
H15   H     H_    0.259907 0.734436 0.422890 0.126495
H16   H     H_    0.862419 0.198973 0.974057 0.183359
H17   H     H_    0.777422 0.112648 0.980350 0.218479
H18   H     H_    0.744408 0.403444 0.057774 0.147121
H19   H     H_    0.242827 0.155878 0.061359 0.228428
H20   H     H_    0.093644 0.081031 0.893838 0.233306
H21   H     H_    0.169602 0.020104 0.896613 0.280087
H22   H     H_    0.152811 0.080860 0.839780 0.232641
H23   H     H_    0.910672 0.283599 0.105650 0.228558
H24   H     H_    0.047035 0.690531 0.436461 0.219230
H25   H     H_    0.998447 0.534763 0.347208 0.287512
H26   H     H_    0.110772 0.578490 0.457598 0.211506
H27   H     H_    0.088233 0.529520 0.332149 0.230428
H28   H     H_    0.550986 0.056124 0.755919 0.230796
H29   H     H_    0.646202 0.972446 0.730306 0.245156
H30   H     H_    0.740184 0.072444 0.825068 0.231954
H31   H     H_    0.653827 0.053721 0.705228 0.231840
H32   H     H_    0.602762 0.325506 0.995482 0.234498
H33   H     H_    0.576886 0.402551 0.123223 0.227158
H34   H     H_    0.821520 0.200328 0.108983 0.177778
H35   H     H_    0.690835 0.457554 0.179916 0.243737
H36   H     H_    0.664451 0.380471 0.204300 0.251843
H37   H     H_    0.698376 0.791129 0.882877 0.177085
H38   H     H_    0.720432 0.798983 0.064108 0.152307
H39   H     H_    0.804083 0.709771 0.895293 0.178565
H40   H     H_    0.778607 0.700665 0.044401 0.152697
H41   H     H_    0.698688 0.314838 0.406633 0.175796
N1    N     N_2   0.227929 0.159401 0.001631 -0.304800
N2    N     N_2   0.075612 0.655987 0.399881 -0.265970
N3    N     N_2   0.618971 0.085205 0.807862 -0.280477
N4    N     N_2   0.636371 0.322347 0.057584 -0.310457
O1    O     O_3   0.000000 0.500000 0.000000 -0.500818
O2    O     O_R   0.324760 0.053850 0.939900 -0.630530
O3    O     O_R   0.443270 0.883090 0.060070 -0.655737
O4    O     O_R   0.053940 0.324750 0.939940 -0.645837
O5    O     O_R   0.616890 0.176890 0.060090 -0.629735
O6    O     O_R   0.323100 0.883090 0.939900 -0.574476
O7    O     O_R   0.616910 0.056740 0.939940 -0.627666
O8    O     O_R   0.615250 0.885990 0.939940 -0.643363
O9    O     O_R   0.446110 0.175200 0.060060 -0.651873
O10   O     O_R   0.614030 0.053850 0.229160 -0.642639
O11   O     O_R   0.324790 0.884790 0.770830 -0.638154
O12   O     O_R   0.053880 0.613970 0.229150 -0.601595
O13   O     O_R   0.884790 0.613970 0.060060 -0.640097
O14   O     O_R   0.175250 0.615170 0.229170 -0.652071
O15   O     O_R   0.886020 0.446110 0.770840 -0.642988
O16   O     O_R   0.176940 0.616860 0.060100 -0.647955
O17   O     O_R   0.883150 0.323060 0.939910 -0.665425
O18   O     O_R   0.056770 0.616860 0.939930 -0.646880
O19   O     O_R   0.883130 0.443210 0.060060 -0.594140
O20   O     O_R   0.884840 0.324750 0.770840 -0.641779
O21   O     O_R   0.175280 0.446110 0.060100 -0.641745
O22   O     O_R   0.885990 0.615170 0.939900 -0.643211
O23   O     O_3   0.500040 0.999960 0.000000 -0.498628
O24   O     O_R   0.615200 0.175200 0.229160 -0.644571
O25   O     O_R   0.446160 0.885990 0.770850 -0.648970
O26   O     O_R   0.614060 0.884790 0.060100 -0.643358
Zn1   Zn    Zn3+2 0.956210 0.542060 0.085830 1.016228
Zn2   Zn    Zn3+2 0.129620 0.543770 0.085850 0.962081
Zn3   Zn    Zn3+2 0.957930 0.543770 0.914160 0.970034
Zn4   Zn    Zn3+2 0.956240 0.370390 0.914160 0.972722
Zn5   Zn    Zn3+2 0.543830 0.957900 0.914170 0.961487
Zn6   Zn    Zn3+2 0.542120 0.956180 0.085840 0.968926
Zn7   Zn    Zn3+2 0.370430 0.956180 0.914150 0.997517
Zn8   Zn    Zn3+2 0.543800 0.129560 0.085840 0.960071

loop_
_geom_bond_atom_site_label_1
_geom_bond_atom_site_label_2
_ccdc_geom_bond_type
C36   N1    S    
O3    Zn6   S    
C37   H27   S    
C27   O6    A    
C26   O2    A    
C16   C21   S    
C32   F1    S    
O16   Zn2   S    
C27   O3    A    
C1    C11   S    
C3    C6    S    
C25   O26   A    
C25   C43   S    
C36   H20   S    
C38   H29   S    
C28   O20   A    
C12   C23   S    
C24   O25   A    
O23   Zn8   S    
C1    O21   A    
C37   N2    S    
C30   O18   A    
C34   C40   S    
C4    O22   A    
O1    Zn3   S    
C33   N3    S    
O18   Zn3   S    
C13   F2    S    
O10   Zn6   S    
O17   Zn4   S    
C28   O15   A    
O19   Zn1   S    
C18   C19   D    
C10   H6    S    
O22   Zn3   S    
C16   O12   A    
O6    Zn7   S    
C5    C22   S    
C35   H23   S    
C2    C44   D    
C8    C9    D    
O1    Zn2   S    
C14   C27   S    
C8    H5    S    
H28   N3    S    
O12   Zn1   S    
O14   Zn2   S    
C22   O24   A    
C14   H8    S    
O24   Zn8   S    
C13   C14   D    
C17   C30   S    
C32   H1    S    
C5    H2    S    
C34   C41   S    
C42   C44   S    
C12   F3    S    
C44   H39   S    
C18   H11   S    
C9    C26   S    
O9    Zn8   S    
H19   N1    S    
O23   Zn5   S    
C29   O7    A    
C43   H38   S    
C39   H33   S    
C42   H37   S    
O1    Zn4   S    
C41   H12   S    
C9    N1    S    
C38   H31   S    
C20   N2    S    
C38   N3    S    
C7    C28   S    
C23   C31   S    
C2    C4    S    
O20   Zn4   S    
C12   C41   S    
O21   Zn2   S    
C25   O8    A    
C33   C34   S    
C31   O17   A    
C2    H40   S    
O26   Zn6   S    
C6    H3    S    
H32   N4    S    
C11   H7    S    
C29   O5    A    
C33   H13   S    
C23   C35   S    
C13   C15   S    
C42   C43   D    
O15   Zn3   S    
C39   N4    S    
C36   H22   S    
O7    Zn5   S    
C12   H18   S    
O2    Zn7   S    
C15   C17   D    
C37   H26   S    
O23   Zn6   S    
C30   O16   A    
C3    H41   S    
C40   H34   S    
C39   H35   S    
O5    Zn8   S    
C3    C5    D    
C22   O10   A    
C36   H21   S    
C6    C7    D    
C38   H30   S    
C16   O14   A    
C4    O13   A    
C40   H17   S    
O4    Zn4   S    
C24   O11   A    
C32   C33   S    
O8    Zn5   S    
C35   C40   S    
O25   Zn5   S    
C7    H4    S    
C26   O9    A    
C23   C32   S    
H24   N2    S    
C19   H14   S    
C1    O4    A    
O23   Zn7   S    
C29   C34   S    
C19   C24   S    
C18   C20   S    
O11   Zn7   S    
C15   H9    S    
C10   C11   D    
C39   H36   S    
C41   N4    S    
C20   C21   D    
C8    C10   S    
C37   H25   S    
C31   O19   A    
O13   Zn1   S    
C35   H16   S    
O1    Zn1   S    
C21   H15   S    
C17   H10   S    
