data_mof_unit_pretest_813.cif
_audit_creation_date              2012-10-26T20:31:47-0400
_audit_creation_method            fapswitch 2.2
_symmetry_space_group_name_H-M    P1
_symmetry_Int_Tables_number       1
_space_group_crystal_system       triclinic
_cell_length_a                    15.900796
_cell_length_b                    10.802647
_cell_length_c                    9.54559
_cell_angle_alpha                 90.291692
_cell_angle_beta                  89.90716
_cell_angle_gamma                 90.106093
_cell_volume                      1639.62635776

loop_
_atom_site_label
_atom_site_type_symbol
_atom_type_description
_atom_site_fract_x
_atom_site_fract_y
_atom_site_fract_z
_atom_type_partial_charge
C1    C     C_R   0.497324 0.262611 0.499803 0.545314
C2    C     C_R   0.489546 0.129396 0.501290 -0.011838
C3    C     C_R   0.434346 0.064415 0.410894 -0.053626
C4    C     C_R   0.340304 0.500067 0.500118 0.563923
C5    C     C_R   0.435223 0.933678 0.410367 -0.062491
C6    C     C_R   0.490398 0.870650 0.501835 -0.017474
C7    C     C_R   0.534218 0.937480 0.603165 0.008448
C8    C     C_3   0.625443 0.932707 0.640505 -0.276604
C9    C     C_3   0.624684 0.073112 0.640379 -0.262024
C10   C     C_R   0.564019 0.555011 0.074011 0.218501
C11   C     C_R   0.440982 0.436390 0.074112 0.007182
C12   C     C_3   0.950253 0.431709 0.624903 -0.251343
C13   C     C_R   0.441087 0.436064 0.925304 0.008728
C14   C     C_R   0.564076 0.554858 0.926511 0.171723
C15   C     C_3   0.589878 0.687555 0.920659 -0.261256
C16   C     C_R   0.498324 0.737468 0.500231 0.542684
C17   C     C_3   0.588827 0.688339 0.080232 -0.127942
C18   C     C_R   0.659704 0.500231 0.499809 0.543504
C19   C     C_3   0.048198 0.433714 0.628365 -0.124733
C20   C     C_3   0.049134 0.428804 0.365309 -0.103859
C21   C     C_3   0.950532 0.436128 0.359234 -0.078886
C22   C     C_1   0.749170 0.500721 0.499146 0.005537
C23   C     C_3   0.916770 0.501675 0.494667 -0.003470
C24   C     C_3   0.083048 0.503037 0.495941 0.020127
C25   C     C_2   0.079701 0.487133 0.765669 0.245499
C26   C     C_1   0.376477 0.130398 0.321072 0.224713
C27   C     C_1   0.380351 0.865381 0.316314 0.242847
C28   C     C_2   0.673501 0.708386 0.147100 0.232400
C29   C     C_2   0.095792 0.450791 0.228235 0.257391
C30   C     C_2   0.916543 0.494854 0.226997 0.303465
C31   C     C_2   0.080686 0.720600 0.382937 0.277292
C32   C     C_3   0.949984 0.636661 0.502421 -0.262636
C33   C     C_3   0.047845 0.638973 0.498916 -0.085273
C34   C     C_1   0.824575 0.501154 0.497540 -0.034608
C35   C     C_1   0.175479 0.501866 0.498770 0.013044
C36   C     C_1   0.250868 0.500882 0.500010 0.044238
C37   C     C_R   0.533829 0.064528 0.602589 0.017381
Cu1   Cu    Cu3+1 0.500000 0.499980 0.640670 0.969433
Cu2   Cu    Cu3+1 0.500000 0.500020 0.359330 0.996337
H1    H     H_    0.928011 0.333935 0.621884 0.124481
H2    H     H_    0.392491 0.386096 0.869442 0.146233
H3    H     H_    0.653232 0.698549 0.872771 0.154204
H4    H     H_    0.540344 0.747525 0.875116 0.141372
H5    H     H_    0.538798 0.748651 0.124855 0.114761
H6    H     H_    0.063493 0.329627 0.386333 0.066343
H7    H     H_    0.926346 0.339088 0.360477 0.135743
H8    H     H_    0.069245 0.684668 0.597246 0.126441
H9    H     H_    0.928053 0.680348 0.601882 0.123090
H10   H     H_    0.058296 0.577024 0.802041 0.133300
H11   H     H_    0.680511 0.779197 0.227259 0.094954
H12   H     H_    0.923239 0.473674 0.721881 0.152603
H13   H     H_    0.137915 0.379687 0.188711 0.147472
H14   H     H_    0.929397 0.591101 0.203488 0.146722
H15   H     H_    0.041919 0.742127 0.292897 0.142349
H16   H     H_    0.922042 0.693093 0.417354 0.099371
H17   H     H_    0.636199 0.893971 0.746338 0.136526
H18   H     H_    0.664853 0.891772 0.555812 0.128200
H19   H     H_    0.634137 0.114447 0.746089 0.155677
H20   H     H_    0.663723 0.114205 0.555661 0.135914
H21   H     H_    0.392074 0.387364 0.129543 0.159240
H22   H     H_    0.070238 0.335812 0.623860 0.154161
N1    N     N_R   0.500530 0.500930 0.147930 -0.253457
N2    N     N_R   0.500530 0.500890 0.852020 -0.245435
N3    N     N_1   0.329776 0.182476 0.249723 -0.307526
N4    N     N_1   0.336665 0.810807 0.241229 -0.207672
O1    O     O_R   0.500000 0.319640 0.618810 -0.500104
O2    O     O_2   0.734354 0.646186 0.113051 -0.479405
O3    O     O_2   0.088769 0.546429 0.162034 -0.490028
O4    O     O_2   0.874056 0.434153 0.145219 -0.465221
O5    O     O_2   0.151821 0.763032 0.388784 -0.467870
O6    O     O_R   0.500010 0.319680 0.381230 -0.498376
O7    O     O_R   0.379430 0.499990 0.618840 -0.496751
O8    O     O_R   0.379440 0.500030 0.381260 -0.486957
O9    O     O_R   0.499990 0.680320 0.618770 -0.498350
O10   O     O_R   0.500000 0.680360 0.381190 -0.515424
O11   O     O_R   0.620560 0.499970 0.618740 -0.500899
O12   O     O_R   0.620570 0.500010 0.381160 -0.475360
O13   O     O_2   0.128538 0.428573 0.838206 -0.471975

loop_
_geom_bond_atom_site_label_1
_geom_bond_atom_site_label_2
_ccdc_geom_bond_type
C4    C36   S    
C16   O10   A    
C35   C36   T    
C11   N1    A    
C12   H12   S    
C8    H17   S    
C13   H2    S    
C7    C8    S    
Cu1   O11   S    
C12   C23   S    
C1    O6    A    
C16   O9    A    
Cu2   O12   S    
Cu1   N2    S    
C5    C6    A    
C10   C17   S    
C1    C2    S    
C26   N3    T    
C5    C27   S    
C28   H11   S    
C31   O5    D    
Cu1   O1    S    
C8    C9    S    
C31   C33   S    
Cu2   O10   S    
C32   H16   S    
C20   H6    S    
C32   H9    S    
C10   N1    A    
C20   C29   S    
C22   C34   T    
C30   H14   S    
Cu1   O7    S    
C24   C35   S    
C25   O13   D    
C20   C24   S    
C28   O2    D    
C10   C14   A    
C9    H20   S    
C12   H1    S    
C27   N4    T    
C8    H18   S    
C29   O3    D    
C13   N2    A    
C23   C34   S    
C9    C37   S    
C1    O1    A    
C7    C37   A    
C4    O8    A    
C21   C23   S    
C33   H8    S    
C11   H21   S    
C4    O7    A    
C30   O4    D    
C21   H7    S    
Cu1   O9    S    
C15   C17   S    
Cu2   N1    S    
C9    H19   S    
C18   O11   A    
C18   C22   S    
C17   C28   S    
C3    C26   S    
C15   H3    S    
C3    C5    A    
C6    C7    A    
C21   C30   S    
C24   C33   S    
C23   C32   S    
C19   C24   S    
C17   H5    S    
C15   H4    S    
C32   C33   S    
C11   C13   A    
C2    C37   A    
Cu1   Cu2   S    
C19   H22   S    
C18   O12   A    
C14   N2    A    
C12   C19   S    
C2    C3    A    
Cu2   O8    S    
C31   H15   S    
C19   C25   S    
C25   H10   S    
C6    C16   S    
C20   C21   S    
Cu2   O6    S    
C14   C15   S    
C29   H13   S    
