data_mof_unit_pretest_1753.cif
_audit_creation_date              2013-03-05T16:18:53-0500
_audit_creation_method            fapswitch 2.2
_symmetry_space_group_name_H-M    P1
_symmetry_Int_Tables_number       1
_space_group_crystal_system       triclinic
_cell_length_a                    32.877358
_cell_length_b                    33.646512
_cell_length_c                    22.389281
_cell_angle_alpha                 90.067549
_cell_angle_beta                  90.052883
_cell_angle_gamma                 89.948269
_cell_volume                      24767.1733381

loop_
_atom_site_label
_atom_site_type_symbol
_atom_site_description
_atom_site_fract_x
_atom_site_fract_y
_atom_site_fract_z
_atom_type_partial_charge
O1    O     O_R   0.041070 0.458950 0.550320 -0.550465
O2    O     O_R   0.958930 0.541050 0.449680 -0.586291
O3    O     O_R   0.958930 0.541050 0.550320 -0.547388
O4    O     O_R   0.041070 0.458950 0.449680 -0.583044
O5    O     O_R   0.958930 0.458950 0.449680 -0.538907
O6    O     O_R   0.041070 0.541050 0.550320 -0.586538
O7    O     O_R   0.041070 0.541050 0.449680 -0.553501
O8    O     O_R   0.958930 0.458950 0.550320 -0.581689
O9    O     O_R   0.541070 0.958950 0.550320 -0.568034
O10   O     O_R   0.458930 0.041050 0.449680 -0.564993
O11   O     O_R   0.458930 0.041050 0.550320 -0.553048
O12   O     O_R   0.541070 0.958950 0.449680 -0.551098
O13   O     O_R   0.458930 0.958950 0.449680 -0.576735
O14   O     O_R   0.541070 0.041050 0.550320 -0.558891
O15   O     O_R   0.541070 0.041050 0.449680 -0.553806
O16   O     O_R   0.458930 0.958950 0.550320 -0.577005
C1    C     C_R   0.033178 0.486501 0.318706 0.110141
C2    C     C_R   0.967023 0.486123 0.681384 0.117447
C3    C     C_R   0.966885 0.513612 0.318557 0.122059
C4    C     C_R   0.032967 0.513878 0.681536 0.107166
C5    C     C_R   0.498962 0.964935 0.319185 0.128733
C6    C     C_R   0.464125 0.998989 0.680617 0.129245
C7    C     C_R   0.501130 0.035219 0.319645 0.152847
C8    C     C_R   0.536054 0.001148 0.680317 0.148942
C9    C     C_R   0.054072 0.445126 0.499925 0.954820
C10   C     C_R   0.946094 0.555133 0.499892 0.947515
C11   C     C_R   0.946308 0.444628 0.499993 0.940948
C12   C     C_R   0.054267 0.554732 0.500117 0.960683
C13   C     C_R   0.554970 0.945679 0.500023 0.935944
C14   C     C_R   0.445314 0.054602 0.499947 0.937102
C15   C     C_R   0.445441 0.945615 0.499964 0.955032
C16   C     C_R   0.554666 0.054676 0.500108 0.910875
Cu1   Cu    Cu3+1 1.000000 0.500000 0.559570 1.064724
Cu2   Cu    Cu3+1 1.000000 0.500000 0.440430 1.066849
Cu3   Cu    Cu3+1 0.500000 0.000000 0.559570 1.069587
Cu4   Cu    Cu3+1 0.500000 0.000000 0.440430 1.072334
N1    N     N_R   0.000000 0.500000 0.350920 -0.209770
N2    N     N_R   1.000000 0.500000 0.649080 -0.210892
N3    N     N_R   0.500000 0.000000 0.350920 -0.206573
N4    N     N_R   0.500000 0.000000 0.649080 -0.209500
C17   C     C_R   0.190651 0.689871 0.554645 0.623178
C18   C     C_R   0.840710 0.279676 0.496507 0.632714
C19   C     C_R   0.837477 0.716439 0.526827 0.622993
C20   C     C_R   0.165245 0.286380 0.531421 0.623227
C21   C     C_R   0.668274 0.213114 0.504621 0.628943
C22   C     C_R   0.301368 0.817905 0.449234 0.598558
C23   C     C_R   0.324440 0.205372 0.460211 0.601508
C24   C     C_R   0.676101 0.795415 0.461188 0.610136
N5    N     N_R   0.170508 0.681134 0.502652 -0.438364
N6    N     N_R   0.829937 0.318553 0.505618 -0.440366
N7    N     N_R   0.831873 0.683059 0.492811 -0.440298
N8    N     N_R   0.169309 0.318336 0.494111 -0.439767
N9    N     N_R   0.679203 0.173873 0.501291 -0.439536
N10   N     N_R   0.321561 0.826578 0.501188 -0.438526
N11   N     N_R   0.320670 0.173659 0.498045 -0.438895
N12   N     N_R   0.681254 0.828388 0.496228 -0.440000
C25   C     C_R   0.179124 0.700691 0.450536 0.601152
C26   C     C_R   0.790174 0.329578 0.513434 0.587537
C27   C     C_R   0.797888 0.678034 0.458271 0.602374
C28   C     C_R   0.201982 0.322107 0.456693 0.600431
C29   C     C_R   0.719117 0.162507 0.496990 0.591270
C30   C     C_R   0.312100 0.807876 0.553705 0.623396
C31   C     C_R   0.287414 0.169242 0.534190 0.624492
C32   C     C_R   0.715802 0.834040 0.529326 0.617530
C33   C     C_R   0.209203 0.730316 0.449262 -0.035935
C34   C     C_R   0.759261 0.301046 0.511452 -0.032460
C35   C     C_R   0.767437 0.707233 0.457454 -0.033820
C36   C     C_R   0.232611 0.293075 0.456168 -0.034270
C37   C     C_R   0.749992 0.191176 0.496428 -0.032935
C38   C     C_R   0.281669 0.778599 0.555147 -0.036916
C39   C     C_R   0.256327 0.197835 0.533808 -0.038282
C40   C     C_R   0.746859 0.805425 0.528704 -0.035115
C41   C     C_R   0.230144 0.739706 0.502348 -0.006068
C42   C     C_R   0.769891 0.260829 0.503657 -0.008196
C43   C     C_R   0.772496 0.741651 0.492575 -0.005945
C44   C     C_R   0.229068 0.260083 0.494497 -0.006229
C45   C     C_R   0.739324 0.231527 0.502409 -0.008060
C46   C     C_R   0.260755 0.769181 0.502049 -0.005638
C47   C     C_R   0.259805 0.230785 0.495381 -0.006001
C48   C     C_R   0.741920 0.771104 0.493325 -0.005599
C49   C     C_R   0.220710 0.719527 0.555656 -0.037167
C50   C     C_R   0.810981 0.249869 0.496824 -0.041682
C51   C     C_R   0.807904 0.746526 0.527327 -0.041031
C52   C     C_R   0.195004 0.256467 0.532241 -0.040007
C53   C     C_R   0.698148 0.242675 0.506943 -0.036418
C54   C     C_R   0.270475 0.789075 0.448608 -0.033498
C55   C     C_R   0.294040 0.234603 0.458024 -0.032750
C56   C     C_R   0.706357 0.766045 0.458987 -0.036374
C57   C     C_R   0.218957 0.750542 0.396301 -0.124176
C58   C     C_R   0.718136 0.311798 0.516710 -0.124999
C59   C     C_R   0.732028 0.702664 0.422972 -0.124056
C60   C     C_R   0.266719 0.296422 0.418773 -0.125643
C61   C     C_R   0.791098 0.180491 0.490376 -0.124775
C62   C     C_R   0.271781 0.758507 0.608169 -0.121577
C63   C     C_R   0.222067 0.194346 0.570885 -0.121238
C64   C     C_R   0.782454 0.810169 0.562729 -0.121340
C65   C     C_R   0.821274 0.209594 0.490021 -0.118599
C66   C     C_R   0.241695 0.729237 0.608394 -0.121772
C67   C     C_R   0.191741 0.223388 0.570161 -0.120134
C68   C     C_R   0.812657 0.781005 0.562077 -0.120122
C69   C     C_R   0.249293 0.779561 0.395960 -0.125984
C70   C     C_R   0.687839 0.282923 0.513880 -0.119329
C71   C     C_R   0.701787 0.731766 0.423751 -0.122749
C72   C     C_R   0.297140 0.267500 0.419729 -0.125714
O17   O     O_2   0.181805 0.669713 0.605046 -0.486061
O18   O     O_2   0.879990 0.270016 0.486687 -0.463291
O19   O     O_2   0.871394 0.720285 0.560313 -0.470418
O20   O     O_2   0.132692 0.283793 0.567866 -0.474645
O21   O     O_2   0.628587 0.223397 0.505785 -0.476863
O22   O     O_2   0.311340 0.836958 0.398321 -0.495588
O23   O     O_2   0.357604 0.208634 0.425092 -0.494598
O24   O     O_2   0.641703 0.791031 0.428924 -0.481920
O25   O     O_2   0.158650 0.691455 0.400144 -0.486663
O26   O     O_2   0.780648 0.368099 0.522963 -0.491033
O27   O     O_2   0.793573 0.644788 0.425097 -0.490822
O28   O     O_2   0.204820 0.353941 0.420329 -0.489383
O29   O     O_2   0.728842 0.123590 0.493692 -0.493100
O30   O     O_2   0.332093 0.817608 0.604302 -0.485467
O31   O     O_2   0.284523 0.137295 0.570314 -0.481025
O32   O     O_2   0.719944 0.867172 0.562793 -0.487993
H1    H     H_    0.203315 0.743906 0.354884 0.200702
H2    H     H_    0.709206 0.342554 0.522508 0.202482
H3    H     H_    0.727456 0.676503 0.395552 0.201008
H4    H     H_    0.270126 0.321482 0.388880 0.200578
H5    H     H_    0.800058 0.149672 0.485517 0.201767
H6    H     H_    0.287378 0.765190 0.649604 0.200613
H7    H     H_    0.218661 0.169279 0.600766 0.201329
H8    H     H_    0.786997 0.836308 0.590206 0.201381
H9    H     H_    0.852657 0.200414 0.484828 0.204285
H10   H     H_    0.234992 0.714223 0.649996 0.200351
H11   H     H_    0.165834 0.219894 0.599531 0.202551
H12   H     H_    0.839616 0.785482 0.589088 0.202893
H13   H     H_    0.256130 0.794440 0.354296 0.199698
H14   H     H_    0.656393 0.292201 0.517700 0.203914
H15   H     H_    0.674770 0.727224 0.396889 0.201726
H16   H     H_    0.323117 0.271074 0.390517 0.200182
C73   C     C_R   0.859765 0.376372 0.457433 -0.170291
C74   C     C_R   0.150901 0.613114 0.477012 -0.176403
C75   C     C_R   0.148318 0.384118 0.527877 -0.178827
C76   C     C_R   0.854767 0.619609 0.532982 -0.176452
C77   C     C_R   0.342593 0.896346 0.498139 -0.178140
C78   C     C_R   0.641821 0.120841 0.451245 -0.182038
C79   C     C_R   0.647681 0.886422 0.453647 -0.183201
C80   C     C_R   0.353648 0.115702 0.454096 -0.183382
H17   H     H_    0.836663 0.373951 0.423071 0.208173
H18   H     H_    0.180989 0.608684 0.458470 0.206115
H19   H     H_    0.177193 0.386853 0.550859 0.204848
H20   H     H_    0.827590 0.618861 0.560286 0.205129
H21   H     H_    0.310815 0.904816 0.496669 0.207055
H22   H     H_    0.660825 0.125372 0.412331 0.210514
H23   H     H_    0.670339 0.886485 0.418541 0.205723
H24   H     H_    0.330889 0.116138 0.419073 0.205510
C81   C     C_R   0.887366 0.407547 0.455681 0.343770
C82   C     C_R   0.122870 0.582053 0.476126 0.330531
C83   C     C_R   0.120531 0.415320 0.529658 0.340780
C84   C     C_R   0.882251 0.588165 0.535142 0.329915
C85   C     C_R   0.372612 0.925618 0.497646 0.319906
C86   C     C_R   0.612091 0.091495 0.450328 0.335510
C87   C     C_R   0.617215 0.915169 0.454065 0.323597
C88   C     C_R   0.383897 0.086740 0.453628 0.361371
C89   C     C_R   0.917508 0.411018 0.500411 -0.251292
C90   C     C_R   0.083892 0.587450 0.500756 -0.255921
C91   C     C_R   0.083184 0.412041 0.499277 -0.255380
C92   C     C_R   0.917326 0.588702 0.498996 -0.250331
C93   C     C_R   0.413918 0.914770 0.499917 -0.269467
C94   C     C_R   0.586500 0.085885 0.500645 -0.283523
C95   C     C_R   0.587567 0.915311 0.499960 -0.275133
C96   C     C_R   0.413521 0.085781 0.499649 -0.275715
C97   C     C_R   0.919649 0.381841 0.546063 0.263305
C98   C     C_R   0.073529 0.624348 0.526793 0.262094
C99   C     C_R   0.074062 0.376946 0.467209 0.251548
C100  C     C_R   0.924399 0.621587 0.460933 0.272999
C101  C     C_R   0.424812 0.874272 0.502226 0.251846
C102  C     C_R   0.592516 0.110198 0.552021 0.266445
C103  C     C_R   0.589906 0.886225 0.545790 0.291194
C104  C     C_R   0.412261 0.115159 0.545180 0.252602
C105  C     C_R   0.890352 0.351571 0.548673 0.411722
C106  C     C_R   0.101916 0.655624 0.527055 0.409276
C107  C     C_R   0.102433 0.345711 0.465489 0.410125
C108  C     C_R   0.896309 0.653059 0.459066 0.408155
C109  C     C_R   0.394376 0.844923 0.502307 0.403330
C110  C     C_R   0.624080 0.138216 0.552981 0.399017
C111  C     C_R   0.620899 0.857448 0.544492 0.396450
C112  C     C_R   0.381493 0.144187 0.544774 0.397570
C113  C     C_R   0.860554 0.348838 0.503915 0.123440
C114  C     C_R   0.140747 0.649834 0.502222 0.130220
C115  C     C_R   0.139568 0.349483 0.495974 0.131960
C116  C     C_R   0.861486 0.651838 0.495138 0.132841
C117  C     C_R   0.353155 0.856104 0.500626 0.130050
C118  C     C_R   0.648086 0.144042 0.502004 0.125215
C119  C     C_R   0.649633 0.857685 0.498291 0.135184
C120  C     C_R   0.352146 0.144159 0.499300 0.133973
C121  C     C_R   0.000013 0.499824 0.223081 0.314884
C122  C     C_R   0.000047 0.499830 0.777015 0.313847
C123  C     C_R   0.500224 0.000271 0.223610 0.326417
C124  C     C_R   0.500330 0.000214 0.776268 0.324723
C125  C     C_R   0.035910 0.494572 0.874002 0.561995
C126  C     C_R   0.964240 0.494146 0.126073 0.561792
C127  C     C_R   0.964174 0.504967 0.873935 0.560962
C128  C     C_R   0.035830 0.505342 0.126185 0.560578
C129  C     C_R   0.525109 0.974360 0.872935 0.560228
C130  C     C_R   0.473750 0.024456 0.126932 0.558434
C131  C     C_R   0.475863 0.026402 0.872916 0.565971
C132  C     C_R   0.527031 0.976359 0.126972 0.563294
N13   N     N_R   0.000043 0.499783 0.842639 -0.444812
N14   N     N_R   0.000033 0.499757 0.157458 -0.445027
N15   N     N_R   0.500459 0.000343 0.841861 -0.451085
N16   N     N_R   0.500349 0.000381 0.158017 -0.450068
C133  C     C_R   0.963235 0.501776 0.936769 -0.021395
C134  C     C_R   0.036812 0.502171 0.063338 -0.020925
C135  C     C_R   0.036845 0.497703 0.936859 -0.021866
C136  C     C_R   0.963262 0.497277 0.063229 -0.022673
C137  C     C_R   0.474781 0.026307 0.936258 -0.030974
C138  C     C_R   0.526950 0.975315 0.063624 -0.030231
C139  C     C_R   0.526209 0.974528 0.936285 -0.028044
C140  C     C_R   0.473938 0.025545 0.063589 -0.027520
C141  C     C_R   0.000039 0.499729 0.968384 -0.010802
C142  C     C_R   0.000038 0.499721 0.031713 -0.010647
C143  C     C_R   0.500486 0.000425 0.968069 -0.007058
C144  C     C_R   0.500461 0.000431 0.031808 -0.006980
C145  C     C_R   0.926415 0.501081 0.968782 -0.129423
C146  C     C_R   0.073638 0.501897 0.031322 -0.131377
C147  C     C_R   0.073664 0.498382 0.968977 -0.131568
C148  C     C_R   0.926437 0.497551 0.031113 -0.130306
C149  C     C_R   0.448707 0.051638 0.968586 -0.128062
C150  C     C_R   0.552895 0.949857 0.031295 -0.130326
C151  C     C_R   0.552280 0.949226 0.968648 -0.127765
C152  C     C_R   0.448043 0.051019 0.031227 -0.130766
O33   O     O_2   0.070673 0.485453 0.845150 -0.519440
O34   O     O_2   0.929603 0.484636 0.154890 -0.515688
O35   O     O_2   0.929414 0.514132 0.845048 -0.519126
O36   O     O_2   0.070463 0.514889 0.155108 -0.521266
O37   O     O_2   0.548189 0.947866 0.842978 -0.503066
O38   O     O_2   0.446613 0.046987 0.156871 -0.509929
O39   O     O_2   0.452797 0.052884 0.842940 -0.496103
O40   O     O_2   0.554131 0.953821 0.156965 -0.503390
H25   H     H_    0.897475 0.502229 0.945702 0.200109
H26   H     H_    0.102561 0.503364 0.054408 0.199098
H27   H     H_    0.102605 0.497246 0.945972 0.199139
H28   H     H_    0.897514 0.496086 0.054113 0.199824
H29   H     H_    0.428447 0.071890 0.945578 0.202303
H30   H     H_    0.573622 0.930063 0.054305 0.201086
H31   H     H_    0.572558 0.928970 0.945665 0.202344
H32   H     H_    0.427297 0.070818 0.054207 0.200641
C153  C     C_R   0.032032 0.483365 0.256093 -0.216283
C154  C     C_R   0.968267 0.482998 0.743987 -0.210563
C155  C     C_R   0.968020 0.516455 0.255923 -0.214114
C156  C     C_R   0.031796 0.516770 0.744185 -0.219970
C157  C     C_R   0.498360 0.964691 0.256125 -0.214606
C158  C     C_R   0.463881 0.998395 0.743665 -0.210548
C159  C     C_R   0.501957 0.035726 0.256591 -0.204854
C160  C     C_R   0.536625 0.001932 0.743371 -0.194168
H33   H     H_    0.057002 0.468822 0.233329 0.186873
H34   H     H_    0.943536 0.468148 0.766758 0.188509
H35   H     H_    0.943114 0.531011 0.233007 0.186072
H36   H     H_    0.056521 0.531591 0.767133 0.186436
H37   H     H_    0.496492 0.936653 0.232400 0.173385
H38   H     H_    0.435188 0.996572 0.767295 0.173057
H39   H     H_    0.503928 0.063860 0.233249 0.173056
H40   H     H_    0.565432 0.003883 0.766758 0.175723
C161  C     C_1   0.071442 0.476293 0.345763 0.387497
N17   N     N_1   0.102651 0.467735 0.365998 -0.169963
C162  C     C_1   0.928860 0.475283 0.654582 0.430522
N18   N     N_1   0.897744 0.466147 0.634602 -0.175070
C163  C     C_1   0.928798 0.524588 0.345493 0.426055
N19   N     N_1   0.897752 0.533683 0.365755 -0.187329
C164  C     C_1   0.070979 0.525137 0.654804 0.394256
N20   N     N_1   0.101978 0.534595 0.634899 -0.173309
C165  C     C_1   0.498883 0.927119 0.349001 0.366270
N21   N     N_1   0.498928 0.896447 0.372325 -0.187087
C166  C     C_1   0.425512 0.998957 0.650442 0.365858
N22   N     N_1   0.394215 0.999043 0.626759 -0.192626
C167  C     C_1   0.501232 0.072926 0.350019 0.397753
N23   N     N_1   0.501275 0.103433 0.373986 -0.237300
C168  C     C_1   0.574517 0.001394 0.649722 0.397951
N24   N     N_1   0.605612 0.001560 0.625509 -0.233852
Cl1   Cl    Cl    0.881247 0.442118 0.397498 -0.525323
Cl2   Cl    Cl    0.138523 0.536103 0.446619 -0.503380
Cl3   Cl    Cl    0.134710 0.458807 0.567859 -0.502720
Cl4   Cl    Cl    0.870067 0.547726 0.581295 -0.531657
Cl5   Cl    Cl    0.357356 0.975705 0.494345 -0.507437
Cl6   Cl    Cl    0.610051 0.061945 0.385203 -0.488289
Cl7   Cl    Cl    0.619226 0.951507 0.397399 -0.470828
Cl8   Cl    Cl    0.382171 0.051874 0.394743 -0.479817
Cl9   Cl    Cl    0.960005 0.381074 0.598511 -0.468449
Cl10  Cl    Cl    0.024740 0.631868 0.558006 -0.458840
Cl11  Cl    Cl    0.026665 0.371325 0.430710 -0.468696
Cl12  Cl    Cl    0.968897 0.624487 0.416735 -0.456669
Cl13  Cl    Cl    0.476505 0.860169 0.504768 -0.439363
Cl14  Cl    Cl    0.560299 0.107938 0.615337 -0.414275
Cl15  Cl    Cl    0.553962 0.884255 0.604532 -0.408383
Cl16  Cl    Cl    0.450014 0.117718 0.601428 -0.399778
Cl17  Cl    Cl    0.889999 0.317823 0.609070 -0.421139
Cl18  Cl    Cl    0.088851 0.702367 0.557308 -0.415967
Cl19  Cl    Cl    0.092045 0.301983 0.424679 -0.425079
Cl20  Cl    Cl    0.904136 0.693995 0.411243 -0.422662
Cl21  Cl    Cl    0.407593 0.794085 0.503441 -0.419845
Cl22  Cl    Cl    0.634518 0.165524 0.618787 -0.423413
Cl23  Cl    Cl    0.623826 0.820435 0.600196 -0.418826
Cl24  Cl    Cl    0.379872 0.181431 0.600365 -0.422778

loop_
_geom_bond_atom_site_label_1
_geom_bond_atom_site_label_2
_geom_bond_distance
_ccdc_geom_bond_type
N10   C117  1.438017 S    
C16   C94   1.483280 S    
C126  N14   1.383025 A    
C44   C47   1.411234 A    
C47   C55   1.408956 A    
C137  C143  1.406735 A    
O15   C16   1.297292 A    
O16   C15   1.291237 A    
C33   C57   1.405345 A    
C17   O17   1.349341 S    
C98   C106  1.407197 A    
C37   C61   1.404748 A    
O16   Cu3   1.943195 S    
C21   O21   1.349851 S    
C39   C63   1.404925 A    
C166  N22   1.157099 T    
C127  N13   1.383092 A    
C149  C152  1.402863 A    
C30   C38   1.405100 A    
C127  O35   1.348287 S    
C80   C120  1.393295 A    
C3    N1    1.385112 A    
C125  N13   1.383031 A    
N5    C114  1.438195 S    
C132  N16   1.380005 A    
C104  Cl16  1.769487 S    
N8    C115  1.433252 S    
C80   C88   1.391763 A    
N9    C118  1.433942 S    
C57   C69   1.396385 A    
O2    Cu2   1.941725 S    
C79   H23   1.083433 S    
N12   C119  1.432740 S    
C122  C156  1.399360 A    
C78   C86   1.390107 A    
C4    C164  1.437460 S    
C41   C49   1.408767 A    
C94   C102  1.424456 A    
O14   C16   1.294763 A    
C153  H33   1.082868 S    
O7    C12   1.293675 A    
C145  H25   1.083001 S    
C127  C133  1.411404 A    
C125  C135  1.411447 A    
C130  O38   1.348574 S    
O10   C14   1.293942 A    
C152  H32   1.082934 S    
C135  C147  1.407592 A    
C73   C81   1.388187 A    
O2    C10   1.290632 A    
C18   O18   1.349557 S    
C76   C84   1.391587 A    
C77   C85   1.394987 A    
C31   C39   1.403006 A    
C51   C68   1.404842 A    
C22   O22   1.349310 S    
C160  H40   1.083785 S    
C103  C111  1.405311 A    
C73   H17   1.083663 S    
C104  C112  1.405535 A    
C74   C114  1.398013 A    
C88   Cl8   1.764633 S    
C131  C137  1.418680 A    
O3    C10   1.295139 A    
C59   C71   1.394948 A    
C68   H12   1.083083 S    
C69   H13   1.083066 S    
Cu1   N2    2.004065 S    
C32   O32   1.349390 S    
O6    Cu1   1.943803 S    
C109  Cl21  1.764670 S    
C133  C141  1.402964 A    
O11   Cu3   1.941806 S    
Cu3   N4    2.004065 S    
C2    N2    1.385556 A    
C48   C56   1.409096 A    
C147  H27   1.083009 S    
C7    C167  1.438792 S    
C13   C95   1.480098 S    
C23   O23   1.349486 S    
C36   C60   1.404763 A    
C87   C95   1.416990 A    
C63   C67   1.395517 A    
C88   C96   1.417562 A    
C60   C72   1.394989 A    
C106  C114  1.406263 A    
C86   Cl6   1.765102 S    
C132  O40   1.348584 S    
C122  C154  1.399238 A    
C124  C158  1.403934 A    
C62   C66   1.396442 A    
C138  C144  1.406744 A    
C110  C118  1.402307 A    
C6    C166  1.437537 S    
C134  C146  1.407621 A    
O12   C13   1.295578 A    
C19   C51   1.403024 A    
C37   C45   1.408223 A    
C43   C51   1.409176 A    
C102  C110  1.402770 A    
C39   C47   1.408932 A    
O4    C9    1.290195 A    
C140  C152  1.408358 A    
C6    C158  1.411800 A    
C161  N17   1.157540 T    
C100  Cl12  1.769807 S    
C150  H30   1.082925 S    
C34   C42   1.407975 A    
C132  C138  1.418719 A    
N5    C25   1.370209 A    
C58   C70   1.393385 A    
C83   Cl3   1.757050 S    
N7    C116  1.432580 S    
N8    C28   1.368954 A    
C27   C35   1.402175 A    
O5    C11   1.294546 A    
N9    C29   1.369978 A    
O6    C12   1.290766 A    
C123  N16   1.468612 S    
C15   C93   1.467358 S    
C42   C45   1.408683 A    
N11   C31   1.369187 A    
N12   C32   1.368920 A    
C1    C153  1.406180 A    
C126  C136  1.411431 A    
C89   C97   1.419683 A    
C20   N8    1.369044 A    
C45   C53   1.408177 A    
C59   H3    1.083090 S    
C99   C107  1.405083 A    
C97   C105  1.403750 A    
Cu1   Cu2   2.667457 S    
C85   C93   1.406812 A    
C25   O25   1.349331 S    
C83   C91   1.407496 A    
C141  C142  1.417902 A    
C23   C55   1.402475 A    
C31   O31   1.349406 S    
C75   C83   1.391611 A    
C25   C33   1.405089 A    
C124  C160  1.404146 A    
C24   C56   1.402363 A    
C148  H28   1.083015 S    
C18   N6    1.369945 A    
C24   O24   1.349481 S    
C92   C100  1.416930 A    
C35   C43   1.408884 A    
C61   C65   1.394638 A    
O15   Cu4   1.943190 S    
C95   C103  1.420758 A    
C136  C148  1.407595 A    
C96   C104  1.419720 A    
C122  N13   1.469290 S    
C79   C119  1.392902 A    
C72   H16   1.083092 S    
C82   C90   1.407110 A    
Cu4   N3    2.004065 S    
C140  C144  1.406800 A    
C164  N20   1.157737 T    
C125  O33   1.348286 S    
C36   C44   1.408848 A    
C128  O36   1.348272 S    
C77   H21   1.083186 S    
C103  Cl15  1.770278 S    
C2    C162  1.437480 S    
C40   C48   1.408983 A    
C28   O28   1.349529 S    
C112  Cl24  1.765959 S    
C74   C82   1.394136 A    
C74   H18   1.083265 S    
C64   C68   1.395468 A    
C10   C92   1.472685 S    
C139  C151  1.408365 A    
C137  C149  1.408379 A    
C150  C151  1.402889 A    
C26   O26   1.349888 S    
C53   C70   1.404147 A    
C105  Cl17  1.766838 S    
Cu2   N1    2.004065 S    
C133  C145  1.407617 A    
C110  Cl22  1.768958 S    
C107  Cl19  1.764472 S    
Cu3   Cu4   2.667457 S    
C44   C52   1.409049 A    
C5    C165  1.437567 S    
C162  N18   1.157816 T    
C34   C58   1.404354 A    
C97   Cl9   1.771199 S    
C23   N11   1.368929 A    
C38   C62   1.405333 A    
C84   Cl4   1.756316 S    
C145  C148  1.400731 A    
C99   Cl11  1.769071 S    
C60   H4    1.083093 S    
C40   C64   1.404909 A    
C107  C115  1.403960 A    
C49   C66   1.405332 A    
O3    Cu1   1.941806 S    
C62   H6    1.083061 S    
C149  H29   1.082927 S    
C78   C118  1.393244 A    
C105  C113  1.403778 A    
C64   H8    1.083084 S    
C81   Cl1   1.758716 S    
C17   N5    1.370484 A    
C7    C159  1.412126 A    
C108  C116  1.402361 A    
C159  H39   1.083841 S    
C109  C117  1.406651 A    
O11   C14   1.296221 A    
C87   Cl7   1.764335 S    
C112  C120  1.402018 A    
C91   C99   1.413524 A    
C3    C163  1.438110 S    
C100  C108  1.405052 A    
C101  C109  1.406511 A    
C165  N21   1.157135 T    
C108  Cl20  1.764788 S    
C42   C50   1.408434 A    
C111  Cl23  1.766021 S    
C73   C113  1.394348 A    
C135  C141  1.403010 A    
C3    C155  1.406230 A    
C76   C116  1.394831 A    
C8    C160  1.412061 A    
C77   C117  1.398669 A    
C143  C144  1.427073 A    
N10   C30   1.370409 A    
C29   O29   1.349571 S    
C128  C134  1.411417 A    
N6    C26   1.369919 A    
C131  O39   1.348588 S    
C139  C143  1.406811 A    
C129  O37   1.348573 S    
C90   C98   1.412492 A    
C17   C49   1.405173 A    
C22   N10   1.370095 A    
C35   C59   1.404753 A    
C129  N15   1.379944 A    
C19   O19   1.349366 S    
C50   C65   1.404584 A    
C86   C94   1.419589 A    
C101  Cl13  1.764988 S    
C52   C67   1.404898 A    
O13   C15   1.291490 A    
C157  H37   1.083873 S    
C20   C52   1.403128 A    
C79   C87   1.391819 A    
C154  H34   1.082953 S    
N11   C120  1.433556 S    
C78   H22   1.083605 S    
C14   C96   1.480261 S    
C151  H31   1.082931 S    
C19   N7    1.368722 A    
C57   H1    1.083065 S    
C1    C161  1.437324 S    
C61   H5    1.083090 S    
C30   O30   1.349331 S    
O1    Cu1   1.941725 S    
C55   C72   1.404740 A    
C63   H7    1.083081 S    
C28   C36   1.402349 A    
C80   H24   1.083470 S    
C81   C89   1.413085 A    
O9    Cu3   1.941725 S    
O8    C11   1.293172 A    
C121  C153  1.399861 A    
O10   Cu4   1.941725 S    
C11   C89   1.475627 S    
C155  H35   1.082921 S    
C38   C46   1.408731 A    
C18   C50   1.401092 A    
C76   H20   1.083401 S    
C12   C90   1.470560 S    
C75   H19   1.083352 S    
C9    C91   1.467504 S    
C5    C157  1.411987 A    
C93   C101  1.409596 A    
C33   C41   1.408710 A    
C71   H15   1.083092 S    
C129  C139  1.418789 A    
C8    N4    1.376301 A    
C26   C34   1.399308 A    
C123  C159  1.403419 A    
C106  Cl18  1.764535 S    
C41   C46   1.413619 A    
O12   Cu4   1.941806 S    
C163  N19   1.158138 T    
O9    C13   1.294498 A    
C46   C54   1.408812 A    
C130  N16   1.379952 A    
O1    C9    1.292838 A    
C58   H2    1.083116 S    
C66   H10   1.083065 S    
C98   Cl10  1.768156 S    
C75   C115  1.396156 A    
C20   O20   1.349377 S    
O4    Cu2   1.941806 S    
C82   Cl2   1.757375 S    
O13   Cu4   1.943808 S    
O14   Cu3   1.943803 S    
C131  N15   1.380006 A    
C146  H26   1.083007 S    
C21   C53   1.399363 A    
C70   H14   1.083128 S    
C4    N2    1.385467 A    
C2    C154  1.406249 A    
C5    N3    1.376980 A    
C156  H36   1.082959 S    
C6    N4    1.375686 A    
O5    Cu2   1.943808 S    
C167  N23   1.157695 T    
C121  C155  1.399850 A    
C1    N1    1.384241 A    
C168  N24   1.157647 T    
N7    C27   1.368761 A    
C56   C71   1.404672 A    
C85   Cl5   1.759496 S    
C43   C48   1.411076 A    
C29   C37   1.401021 A    
C24   N12   1.368597 A    
C128  N14   1.383081 A    
C121  N14   1.469267 S    
C111  C119  1.401550 A    
C126  O34   1.348308 S    
C134  C142  1.402971 A    
C67   H11   1.083080 S    
C124  N15   1.468584 S    
C65   H9    1.083099 S    
C54   C69   1.405302 A    
C136  C142  1.403009 A    
C7    N3    1.377671 A    
C123  C157  1.403274 A    
O7    Cu2   1.943190 S    
O8    Cu1   1.943195 S    
C32   C40   1.402833 A    
C146  C147  1.400734 A    
C138  C150  1.408388 A    
C21   N9    1.369971 A    
C4    C156  1.406491 A    
C84   C92   1.409558 A    
C27   O27   1.349529 S    
C102  Cl14  1.772143 S    
C130  C140  1.418755 A    
N6    C113  1.433518 S    
C158  H38   1.083813 S    
C22   C54   1.405157 A    
C8    C168  1.438742 S    
