data_mof_unit_pretest_1742.cif
_audit_creation_date              2013-03-05T16:15:01-0500
_audit_creation_method            fapswitch 2.2
_symmetry_space_group_name_H-M    P1
_symmetry_Int_Tables_number       1
_space_group_crystal_system       triclinic
_cell_length_a                    13.366059
_cell_length_b                    14.259654
_cell_length_c                    16.756339
_cell_angle_alpha                 89.930412
_cell_angle_beta                  85.355614
_cell_angle_gamma                 89.954929
_cell_volume                      3183.19102864

loop_
_atom_site_label
_atom_site_type_symbol
_atom_site_description
_atom_site_fract_x
_atom_site_fract_y
_atom_site_fract_z
_atom_type_partial_charge
O1    O     O_R   0.423530 0.626280 0.499990 -0.606187
O2    O     O_R   0.576470 0.373720 0.500010 -0.604806
O3    O     O_R   0.576470 0.626280 0.500010 -0.579416
O4    O     O_R   0.423530 0.373720 0.499990 -0.582380
C1    C     C_R   0.499964 0.673456 0.500085 0.939350
C2    C     C_R   0.500036 0.326537 0.499952 0.943119
O5    O     O_R   0.414510 0.500000 0.615790 -0.622097
O6    O     O_R   0.585490 0.500000 0.384210 -0.623445
O7    O     O_R   0.567420 0.500000 0.615810 -0.561411
O8    O     O_R   0.432580 0.500000 0.384190 -0.565405
C3    C     C_R   0.486897 0.502433 0.655780 0.962850
C4    C     C_R   0.513009 0.496585 0.344370 0.989126
Zn1   Zn    Zn3+2 0.397910 0.500000 0.499990 1.048787
Zn2   Zn    Zn3+2 0.602090 0.500000 0.500010 1.052394
C5    C     C_R   0.476887 0.533491 0.738664 -0.249265
C6    C     C_R   0.521148 0.493260 0.257441 -0.267253
C7    C     C_R   0.540739 0.603320 0.765833 0.236208
C8    C     C_R   0.444070 0.453312 0.216305 0.240436
C9    C     C_R   0.525440 0.635850 0.844890 0.215083
C10   C     C_R   0.449384 0.458280 0.132732 0.209019
C11   C     C_R   0.448110 0.595953 0.896239 -0.131794
C12   C     C_R   0.530553 0.505815 0.091402 -0.137735
C13   C     C_R   0.377803 0.534180 0.866144 0.308549
C14   C     C_R   0.610943 0.540674 0.132422 0.336328
C15   C     C_R   0.393720 0.503048 0.787452 -0.252588
C16   C     C_R   0.605464 0.532694 0.215530 -0.272315
C17   C     C_2   0.463657 0.590183 0.981397 0.359530
C18   C     C_2   0.525918 0.523496 0.006203 0.330850
H1    H     H_    0.664890 0.561993 0.248109 0.212563
H2    H     H_    0.341556 0.453907 0.764151 0.208411
C19   C     C_1   0.499922 0.774091 0.500211 -0.142620
C20   C     C_1   0.500080 0.225892 0.499984 -0.154079
C21   C     C_1   0.499951 0.858651 0.500272 0.056349
C22   C     C_1   0.500074 0.141327 0.500055 0.048604
C23   C     C_1   0.500002 0.957707 0.500248 0.066552
C24   C     C_1   0.500042 0.042268 0.500169 0.065416
N1    N     N_1   0.738130 0.500000 0.500020 -0.044364
N2    N     N_1   0.261870 0.500000 0.499980 -0.046485
C25   C     C_1   0.830584 0.500012 0.500019 0.172803
C26   C     C_1   0.169417 0.499999 0.499970 0.169157
C27   C     C_1   0.950475 0.500014 0.500001 0.015524
C28   C     C_1   0.049527 0.500007 0.499980 0.016701
N3    N     N_R   0.617780 0.644426 0.712472 0.233170
O9    O     O_R   0.702467 0.600541 0.696853 -0.301965
O10   O     O_R   0.609168 0.730975 0.689385 -0.352188
N4    N     N_R   0.363541 0.403234 0.258962 0.243160
O11   O     O_R   0.381502 0.323769 0.293254 -0.357683
O12   O     O_R   0.276994 0.443864 0.274531 -0.295785
Cl1   Cl    Cl    0.596774 0.448367 0.939230 -0.450568
Cl2   Cl    Cl    0.399252 0.669335 0.048620 -0.410320
N5    N     N_R   0.293456 0.498802 0.916010 0.247757
O13   O     O_R   0.246929 0.552403 0.969713 -0.244673
O14   O     O_R   0.254538 0.417728 0.900903 -0.279154
N6    N     N_R   0.696989 0.585955 0.091693 0.249996
O15   O     O_R   0.688123 0.637590 0.028642 -0.268071
O16   O     O_R   0.783308 0.583494 0.122446 -0.297213
N7    N     N_R   0.373700 0.413750 0.089580 0.236470
O17   O     O_R   0.399499 0.356440 0.031144 -0.277823
O18   O     O_R   0.278909 0.427702 0.110006 -0.215624
N8    N     N_R   0.592254 0.704122 0.874938 0.257688
O19   O     O_R   0.688209 0.701141 0.854443 -0.218088
O20   O     O_R   0.557334 0.769248 0.923900 -0.259154

loop_
_geom_bond_atom_site_label_1
_geom_bond_atom_site_label_2
_geom_bond_distance
_ccdc_geom_bond_type
C2    C20   1.435162 S    
O7    Zn2   1.958117 S    
C7    N3    1.433163 S    
C9    C11   1.409970 A    
C9    N8    1.440198 S    
C26   C28   1.602447 S    
O7    C3    1.221236 A    
C27   C28   1.323911 T    
C22   C24   1.412552 S    
C23   C24   1.205803 T    
C17   Cl2   1.768697 S    
O6    C4    1.221246 A    
C17   C18   1.350318 D    
C3    C5    1.454026 S    
C13   C15   1.391713 A    
C11   C17   1.460763 S    
O2    Zn2   1.833246 S    
C25   C27   1.602448 S    
C12   C18   1.455671 S    
Zn2   N1    1.818334 S    
N2    C26   1.235738 T    
N3    O10   1.300723 A    
Zn1   N2    1.818334 S    
O2    C2    1.223783 A    
O3    Zn2   1.832716 S    
O8    C4    1.219457 A    
O1    C1    1.223765 A    
C8    N4    1.433447 S    
C12   C14   1.412572 A    
N8    O20   1.300975 A    
C21   C23   1.412502 S    
C10   C12   1.412239 A    
O5    C3    1.221244 A    
C8    C10   1.398134 A    
C11   C13   1.411526 A    
N3    O9    1.301028 A    
C6    C16   1.396900 A    
N1    C25   1.235740 T    
N6    O16   1.301563 A    
C5    C15   1.394700 A    
O4    C2    1.223586 A    
N7    O18   1.300574 A    
C19   C21   1.205801 T    
N5    O14   1.301610 A    
C14   N6    1.441668 S    
N5    O13   1.300388 A    
N4    O12   1.300888 A    
O3    C1    1.223497 A    
O5    Zn1   1.970797 S    
O1    Zn1   1.833245 S    
C16   H1    1.083856 S    
C6    C8    1.406365 A    
C18   Cl1   1.770098 S    
C15   H2    1.084032 S    
C5    C7    1.411553 A    
N4    O11   1.300818 A    
O6    Zn2   1.970797 S    
C7    C9    1.403334 A    
N7    O17   1.300904 A    
N6    O15   1.300237 A    
C10   N7    1.438739 S    
C13   N5    1.439094 S    
C4    C6    1.452695 S    
O4    Zn1   1.832717 S    
C14   C16   1.393084 A    
N8    O19   1.301249 A    
C1    C19   1.435023 S    
O8    Zn1   1.958117 S    
C20   C22   1.205864 T    
