data_mof_unit_pretest_807.cif
_audit_creation_date              2012-12-10T16:53:07-0500
_audit_creation_method            fapswitch 2.2
_symmetry_space_group_name_H-M    P1
_symmetry_Int_Tables_number       1
_space_group_crystal_system       triclinic
_cell_length_a                    10.833752
_cell_length_b                    10.960797
_cell_length_c                    9.647514
_cell_angle_alpha                 90.530559
_cell_angle_beta                  88.185043
_cell_angle_gamma                 89.784946
_cell_volume                      1144.97586713

loop_
_atom_site_label
_atom_site_type_symbol
_atom_type_description
_atom_site_fract_x
_atom_site_fract_y
_atom_site_fract_z
_atom_type_partial_charge
C1    C     C_R   0.498358 0.265782 0.499305 0.827029
C2    C     C_R   0.056356 0.478294 0.627771 -0.005628
C3    C     C_R   0.126868 0.528870 0.514978 -0.148363
C4    C     C_R   0.065703 0.581017 0.402382 -0.102887
C5    C     C_R   0.937829 0.564191 0.391368 0.162021
C6    C     C_R   0.873149 0.493580 0.491742 -0.122597
C7    C     C_2   0.530338 0.937631 0.388348 -0.031530
C8    C     C_2   0.527693 0.867213 0.504718 0.068228
C9    C     C_2   0.547488 0.069805 0.397652 -0.246853
C10   C     C_2   0.489025 0.135203 0.497125 -0.299843
C11   C     C_2   0.457213 0.410228 0.922851 -0.098030
C12   C     C_R   0.261967 0.510492 0.503859 0.876377
C13   C     C_2   0.447665 0.415192 0.078804 -0.081585
C14   C     C_R   0.504470 0.735333 0.500384 0.881869
C15   C     C_R   0.738083 0.495685 0.497310 0.820472
C16   C     C_R   0.098251 0.466510 0.766258 0.232095
C17   C     C_R   0.040140 0.380568 0.856096 0.236816
C18   C     C_R   0.934235 0.320729 0.813040 -0.190619
C19   C     C_R   0.879629 0.353727 0.690464 -0.206472
C20   C     C_R   0.935860 0.440419 0.602001 -0.005298
Cu1   Cu    Cu3+1 0.500020 0.500020 0.638630 0.951649
Cu2   Cu    Cu3+1 0.499980 0.499980 0.361370 0.982091
H1    H     H_    0.430349 0.093165 0.575926 0.176067
H2    H     H_    0.423591 0.328850 0.872158 0.156176
H3    H     H_    0.522432 0.579055 0.894248 0.200717
H4    H     H_    0.397286 0.342782 0.131128 0.159979
H5    H     H_    0.553532 0.562333 0.104442 0.199826
H6    H     H_    0.888454 0.255036 0.880023 0.157119
H7    H     H_    0.793150 0.310908 0.665341 0.159201
H8    H     H_    0.599985 0.115081 0.315161 0.154935
N1    N     N_2   0.498640 0.498660 0.846910 -0.276272
N2    N     N_2   0.498610 0.498630 0.153040 -0.265706
O1    O     O_R   0.500020 0.321960 0.617040 -0.596454
O2    O     O_R   0.499980 0.321920 0.382900 -0.581345
O3    O     O_R   0.319670 0.500020 0.617100 -0.557002
O4    O     O_R   0.319630 0.499980 0.382950 -0.559054
O5    O     O_R   0.500020 0.678080 0.617100 -0.569382
O6    O     O_R   0.499980 0.678040 0.382960 -0.541003
O7    O     O_R   0.680370 0.500020 0.617050 -0.579771
O8    O     O_R   0.680330 0.499980 0.382900 -0.560069
C21   C     C_2   0.132232 0.662930 0.303541 0.396117
H9    H     H_    0.106027 0.668505 0.196394 0.066098
O9    O     O_2   0.214242 0.729442 0.343235 -0.500969
N3    N     N_2   0.181966 0.553902 0.820222 -0.398438
H10   H     H_    0.235644 0.526541 0.900201 0.257995
C22   C     C_3   0.133372 0.676377 0.837251 -0.676333
H11   H     H_    0.207129 0.737774 0.873832 0.233514
H12   H     H_    0.055519 0.677550 0.914927 0.207073
H13   H     H_    0.101210 0.711548 0.736954 0.241807
N4    N     N_2   0.081842 0.357092 0.992051 -0.447687
H14   H     H_    0.124458 0.427290 0.043084 0.243188
C23   C     C_3   0.141686 0.240159 0.007995 -0.696821
H15   H     H_    0.167483 0.228763 0.117636 0.232268
H16   H     H_    0.226556 0.234549 0.940622 0.211192
H17   H     H_    0.078383 0.164818 0.980649 0.237889
N5    N     N_2   0.871913 0.625474 0.286432 -0.429432
H18   H     H_    0.895512 0.715678 0.272414 0.233231
C24   C     C_3   0.861939 0.558403 0.157224 -0.626279
H19   H     H_    0.951589 0.557138 0.099121 0.198497
H20   H     H_    0.792647 0.603463 0.092344 0.210316
H21   H     H_    0.832196 0.462936 0.176136 0.252817
C25   C     C_2   0.513258 0.891872 0.245234 0.388617
H22   H     H_    0.583770 0.909451 0.165602 0.025775
O10   O     O_2   0.417114 0.843272 0.212845 -0.488043
N6    N     N_2   0.569109 0.915289 0.634107 -0.448147
H23   H     H_    0.634795 0.983171 0.632866 0.262855
C26   C     C_3   0.485112 0.912544 0.754198 -0.636249
H24   H     H_    0.472584 0.006069 0.797792 0.200773
H25   H     H_    0.524863 0.854021 0.834920 0.238706
H26   H     H_    0.392869 0.876708 0.727481 0.232763

loop_
_geom_bond_atom_site_label_1
_geom_bond_atom_site_label_2
_ccdc_geom_bond_type
C17   N4    S    
H3    N1    S    
N4    C23   S    
C26   H24   S    
C7    C25   S    
C25   H22   S    
Cu1   O3    S    
C10   H1    S    
C12   O4    A    
C2    C16   A    
C21   H9    S    
C16   N3    S    
C5    N5    S    
C8    N6    S    
C19   C20   A    
Cu1   O7    S    
C23   H17   S    
C26   H26   S    
Cu2   O8    S    
C15   O8    A    
C24   H21   S    
C17   C18   A    
C24   H19   S    
C18   H6    S    
C7    C8    D    
Cu1   Cu2   S    
N3    H10   S    
C14   O5    A    
Cu1   N1    S    
C22   H13   S    
C15   O7    A    
N3    C22   S    
C16   C17   A    
Cu2   N2    S    
C9    H8    S    
H5    N2    S    
C23   H16   S    
C1    O2    A    
C2    C3    A    
C24   H20   S    
C5    C6    A    
Cu2   O2    S    
C22   H12   S    
C13   H4    S    
Cu1   O1    S    
C4    C21   S    
C1    O1    A    
C11   N1    D    
C14   O6    A    
C19   H7    S    
C11   H2    S    
C11   C13   S    
C6    C20   A    
C23   H15   S    
Cu1   O5    S    
C7    C9    S    
N6    H23   S    
C9    C10   D    
N5    H18   S    
C22   H11   S    
C18   C19   A    
N6    C26   S    
C25   O10   D    
C3    C12   S    
C8    C14   S    
N4    H14   S    
C6    C15   S    
C13   N2    D    
C2    C20   A    
C1    C10   S    
C12   O3    A    
Cu2   O4    S    
C21   O9    D    
C3    C4    A    
N5    C24   S    
C4    C5    A    
C26   H25   S    
Cu2   O6    S    
