data_mof_unit_pretest_1861.cif
_audit_creation_date              2012-12-10T16:42:01-0500
_audit_creation_method            fapswitch 2.2
_symmetry_space_group_name_H-M    P1
_symmetry_Int_Tables_number       1
_space_group_crystal_system       triclinic
_cell_length_a                    26.199729
_cell_length_b                    26.200212
_cell_length_c                    18.535454
_cell_angle_alpha                 89.997037
_cell_angle_beta                  135.028127
_cell_angle_gamma                 90.004981
_cell_volume                      8992.41889241

loop_
_atom_site_label
_atom_site_type_symbol
_atom_type_description
_atom_site_fract_x
_atom_site_fract_y
_atom_site_fract_z
_atom_type_partial_charge
C1    C     C_R   0.612137 0.750652 0.501233 0.515219
C2    C     C_2   0.997636 0.277269 0.439574 -0.125022
C3    C     C_2   0.500618 0.219745 0.445543 -0.127275
C4    C     C_2   0.497634 0.777268 0.439571 -0.124987
C5    C     C_2   0.052331 0.755136 0.491638 -0.046851
C6    C     C_2   0.061687 0.254203 0.510332 -0.048426
C7    C     C_2   0.552331 0.255136 0.491638 -0.046831
C8    C     C_2   0.561686 0.754202 0.510331 -0.048404
C9    C     C_2   0.941683 0.725296 0.438864 -0.137643
C10   C     C_2   0.947593 0.280600 0.450664 -0.136472
C11   C     C_2   0.441684 0.225295 0.438866 -0.137648
C12   C     C_R   0.610893 0.250588 0.498746 0.514532
C13   C     C_2   0.447592 0.780599 0.450661 -0.136514
C14   C     C_2   0.951117 0.743425 0.515585 0.239818
C15   C     C_2   0.936745 0.242225 0.486865 0.239672
C16   C     C_2   0.451118 0.243424 0.515586 0.239751
C17   C     C_2   0.436744 0.742225 0.486864 0.239647
C18   C     C_2   0.751190 0.471919 0.442351 -0.154180
C19   C     C_2   0.748863 0.528086 0.440026 -0.152501
C20   C     C_2   0.251190 0.971919 0.442351 -0.154177
C21   C     C_2   0.248863 0.028086 0.440026 -0.152500
C22   C     C_2   0.747358 0.443857 0.498931 -0.088405
C23   C     C_R   0.112138 0.250652 0.501233 0.515110
C24   C     C_2   0.752663 0.556142 0.504242 -0.085506
C25   C     C_2   0.247358 0.943857 0.498931 -0.088403
C26   C     C_2   0.252663 0.056142 0.504242 -0.085504
C27   C     C_2   0.808935 0.028079 0.557693 -0.145264
C28   C     C_2   0.808940 0.971930 0.560131 -0.149510
C29   C     C_2   0.308937 0.528079 0.560115 -0.145005
C30   C     C_2   0.308938 0.471930 0.557705 -0.149248
C31   C     C_2   0.748454 0.056106 0.501231 -0.088306
C32   C     C_2   0.748458 0.943895 0.495684 -0.089786
C33   C     C_2   0.248452 0.556106 0.495681 -0.086803
C34   C     C_R   0.110893 0.750588 0.498746 0.514644
C35   C     C_2   0.248459 0.443894 0.501235 -0.090701
C36   C     C_R   0.889461 0.749269 0.501755 0.538335
C37   C     C_R   0.887852 0.249127 0.498541 0.537671
C38   C     C_R   0.389461 0.249269 0.501756 0.538313
C39   C     C_R   0.387852 0.749127 0.498540 0.537661
C40   C     C_R   0.749968 0.888576 0.499661 0.511360
C41   C     C_R   0.749965 0.111424 0.500259 0.520776
C42   C     C_R   0.249968 0.388576 0.500268 0.511682
C43   C     C_R   0.249964 0.611424 0.499653 0.520330
C44   C     C_R   0.750305 0.611482 0.500345 0.520092
C45   C     C_2   0.944468 0.747887 0.887746 -0.086986
C46   C     C_R   0.749723 0.388518 0.499760 0.512238
C47   C     C_R   0.250305 0.111482 0.500345 0.520096
C48   C     C_R   0.249723 0.888518 0.499760 0.512239
C49   C     C_R   0.611584 0.750204 0.222915 0.516333
C50   C     C_R   0.611291 0.250089 0.222913 0.518100
C51   C     C_R   0.111584 0.250203 0.222915 0.516449
C52   C     C_R   0.111291 0.750088 0.222913 0.517984
C53   C     C_R   0.888691 0.749858 0.777091 0.516119
C54   C     C_R   0.888389 0.249841 0.777089 0.513768
C55   C     C_R   0.388691 0.249858 0.777091 0.516143
C56   C     C_2   0.941741 0.249387 0.887742 -0.087276
C57   C     C_R   0.388389 0.749842 0.777089 0.513738
C58   C     C_2   0.058162 0.778823 0.056239 -0.148917
C59   C     C_2   0.056968 0.219990 0.056236 -0.153335
C60   C     C_2   0.558162 0.278823 0.056239 -0.148909
C61   C     C_2   0.556968 0.719990 0.056236 -0.153335
C62   C     C_2   0.053994 0.750522 0.112245 -0.089422
C63   C     C_2   0.056681 0.252162 0.112250 -0.088039
C64   C     C_2   0.553994 0.250522 0.112245 -0.089391
C65   C     C_2   0.556681 0.752162 0.112250 -0.088059
C66   C     C_2   0.000843 0.780031 0.943918 -0.145796
C67   C     C_2   0.444467 0.247887 0.887746 -0.086970
C68   C     C_2   0.002013 0.221147 0.943920 -0.153198
C69   C     C_2   0.500843 0.280031 0.943918 -0.145713
C70   C     C_2   0.502013 0.721147 0.943921 -0.153296
C71   C     C_2   0.441741 0.749387 0.887742 -0.087314
C72   C     C_2   0.000616 0.719746 0.445539 -0.127240
Cl1   Cl    Cl    0.037227 0.753635 0.641003 -0.580380
Cl2   Cl    Cl    0.970272 0.179514 0.507223 -0.580600
Cl3   Cl    Cl    0.537228 0.253637 0.641003 -0.580511
Cl4   Cl    Cl    0.470273 0.679513 0.507224 -0.580066
H1    H     H_    0.105081 0.802788 0.093623 0.162551
H2    H     H_    0.861154 0.953279 0.616711 0.164551
H3    H     H_    0.361152 0.546737 0.616670 0.167502
H4    H     H_    0.361150 0.453278 0.605517 0.165860
H5    H     H_    0.695624 0.039156 0.454815 0.108359
H6    H     H_    0.695622 0.960841 0.436483 0.110242
H7    H     H_    0.195613 0.539156 0.436504 0.109079
H8    H     H_    0.195626 0.460838 0.454794 0.109385
H9    H     H_    0.007504 0.727206 0.078293 0.109019
H10   H     H_    0.016400 0.281677 0.078303 0.111708
H11   H     H_    0.507503 0.227207 0.078293 0.109047
H12   H     H_    0.099624 0.191770 0.093610 0.158595
H13   H     H_    0.516401 0.781678 0.078303 0.111657
H14   H     H_    0.006206 0.808263 0.906687 0.166874
H15   H     H_    0.011661 0.197207 0.906697 0.162265
H16   H     H_    0.506206 0.308262 0.906687 0.167008
H17   H     H_    0.511661 0.697207 0.906697 0.162165
H18   H     H_    0.938059 0.718369 0.921568 0.110740
H19   H     H_    0.929101 0.272661 0.921561 0.115067
H20   H     H_    0.438058 0.218370 0.921568 0.110753
H21   H     H_    0.429101 0.772661 0.921561 0.115069
H22   H     H_    0.998845 0.687576 0.406845 0.152605
H23   H     H_    0.605081 0.302788 0.093623 0.162562
H24   H     H_    0.983045 0.296634 0.375256 0.155135
H25   H     H_    0.498848 0.187574 0.406851 0.152521
H26   H     H_    0.483044 0.796632 0.375253 0.155170
H27   H     H_    0.051122 0.789362 0.523362 0.169965
H28   H     H_    0.078846 0.238323 0.578766 0.167419
H29   H     H_    0.551121 0.289362 0.523360 0.169939
H30   H     H_    0.578845 0.738324 0.578766 0.167399
H31   H     H_    0.888245 0.713798 0.367459 0.120290
H32   H     H_    0.918402 0.316305 0.427703 0.120380
H33   H     H_    0.388247 0.213795 0.367463 0.120294
H34   H     H_    0.599623 0.691770 0.093610 0.158581
H35   H     H_    0.418401 0.816304 0.427699 0.120420
H36   H     H_    0.755401 0.453272 0.394383 0.158040
H37   H     H_    0.744684 0.546737 0.383666 0.158569
H38   H     H_    0.255401 0.953272 0.394383 0.158042
H39   H     H_    0.244684 0.046737 0.383666 0.158570
H40   H     H_    0.741235 0.460794 0.545623 0.114293
H41   H     H_    0.758757 0.539201 0.563154 0.113376
H42   H     H_    0.241235 0.960794 0.545623 0.114293
H43   H     H_    0.258757 0.039201 0.563154 0.113378
H44   H     H_    0.861144 0.046737 0.605482 0.169798
O1    O     O_3   0.750030 0.750030 0.500000 -0.453393
O2    O     O_R   0.750010 0.364550 0.560050 -0.537107
O3    O     O_R   0.250010 0.135450 0.560050 -0.531110
O4    O     O_R   0.250010 0.864550 0.560050 -0.537114
O5    O     O_R   0.605390 0.780070 0.439910 -0.543607
O6    O     O_R   0.605390 0.219930 0.439910 -0.545782
O7    O     O_R   0.105390 0.280070 0.439910 -0.543868
O8    O     O_R   0.105390 0.719930 0.439910 -0.545526
O9    O     O_R   0.834580 0.719970 0.439940 -0.567335
O10   O     O_R   0.834580 0.280030 0.439940 -0.565644
O11   O     O_R   0.334580 0.219970 0.439940 -0.567283
O12   O     O_3   0.750030 0.249970 0.500000 -0.453358
O13   O     O_R   0.334580 0.780030 0.439940 -0.565694
O14   O     O_R   0.665460 0.720000 0.560050 -0.525951
O15   O     O_R   0.665460 0.280000 0.560050 -0.524608
O16   O     O_R   0.165460 0.220000 0.560050 -0.525946
O17   O     O_R   0.165460 0.780000 0.560050 -0.524600
O18   O     O_R   0.894670 0.780060 0.560110 -0.492556
O19   O     O_R   0.894670 0.219940 0.560110 -0.494974
O20   O     O_R   0.394670 0.280060 0.560110 -0.492761
O21   O     O_R   0.394670 0.719940 0.560110 -0.494775
O22   O     O_R   0.689950 0.864610 0.439940 -0.541581
O23   O     O_3   0.250030 0.250030 0.500000 -0.453395
O24   O     O_R   0.689950 0.135390 0.439940 -0.538803
O25   O     O_R   0.189950 0.364610 0.439940 -0.541403
O26   O     O_R   0.189950 0.635390 0.439940 -0.539080
O27   O     O_R   0.750020 0.635440 0.439910 -0.539514
O28   O     O_R   0.750020 0.364560 0.439910 -0.543630
O29   O     O_R   0.250020 0.135440 0.439910 -0.539519
O30   O     O_R   0.250020 0.864560 0.439910 -0.543623
O31   O     O_R   0.605400 0.780060 0.270840 -0.536498
O32   O     O_R   0.605400 0.219940 0.270840 -0.538771
O33   O     O_R   0.105400 0.280060 0.270840 -0.536239
O34   O     O_3   0.250030 0.749970 0.500000 -0.453354
O35   O     O_R   0.105400 0.719940 0.270840 -0.539027
O36   O     O_R   0.834560 0.720000 0.729150 -0.540121
O37   O     O_R   0.834560 0.280000 0.729150 -0.533300
O38   O     O_R   0.334560 0.220000 0.729150 -0.540153
O39   O     O_R   0.334560 0.780000 0.729150 -0.533271
O40   O     O_R   0.665490 0.719970 0.270840 -0.542320
O41   O     O_R   0.665490 0.280030 0.270840 -0.537560
O42   O     O_R   0.165490 0.219970 0.270840 -0.542326
O43   O     O_R   0.165490 0.780030 0.270840 -0.537554
O44   O     O_R   0.894650 0.780070 0.729170 -0.530826
O45   O     O_R   0.810120 0.864610 0.560110 -0.539820
O46   O     O_R   0.894650 0.219930 0.729170 -0.541654
O47   O     O_R   0.394650 0.280070 0.729170 -0.530658
O48   O     O_R   0.394650 0.719930 0.729170 -0.541820
O49   O     O_R   0.810120 0.135390 0.560110 -0.529461
O50   O     O_R   0.310120 0.364610 0.560110 -0.540038
O51   O     O_R   0.310120 0.635390 0.560110 -0.529171
O52   O     O_R   0.750010 0.635450 0.560050 -0.531122
Zn1   Zn    Zn3+2 0.835880 0.792950 0.585850 0.975243
Zn2   Zn    Zn3+2 0.750030 0.292900 0.414160 0.941326
Zn3   Zn    Zn3+2 0.250030 0.207100 0.414160 0.943260
Zn4   Zn    Zn3+2 0.250030 0.792900 0.414160 0.941232
Zn5   Zn    Zn3+2 0.750010 0.707110 0.585820 0.966843
Zn6   Zn    Zn3+2 0.750010 0.292890 0.585820 0.962499
Zn7   Zn    Zn3+2 0.250010 0.207110 0.585820 0.966758
Zn8   Zn    Zn3+2 0.250010 0.792890 0.585820 0.962592
Zn9   Zn    Zn3+2 0.835880 0.207050 0.585850 0.977073
Zn10  Zn    Zn3+2 0.335880 0.292950 0.585850 0.975146
Zn11  Zn    Zn3+2 0.335880 0.707050 0.585850 0.977204
Zn12  Zn    Zn3+2 0.664180 0.792950 0.414160 0.947007
Zn13  Zn    Zn3+2 0.664180 0.207050 0.414160 0.951279
Zn14  Zn    Zn3+2 0.164180 0.292950 0.414160 0.947050
Zn15  Zn    Zn3+2 0.164180 0.707050 0.414160 0.951201
Zn16  Zn    Zn3+2 0.750030 0.707100 0.414160 0.943163

loop_
_geom_bond_atom_site_label_1
_geom_bond_atom_site_label_2
_ccdc_geom_bond_type
O52   Zn5   S    
C58   C62   D    
C56   H19   S    
O30   Zn4   S    
C21   C26   D    
C5    H27   S    
O41   Zn2   S    
C48   O30   A    
C11   H33   S    
C1    C8    S    
C50   C64   S    
C10   H32   S    
C9    C72   S    
O23   Zn3   S    
O39   Zn8   S    
C4    C8    D    
C60   H23   S    
C25   H42   S    
C68   H15   S    
O31   Zn12  S    
C66   H14   S    
C61   C70   S    
C72   H22   S    
C27   H44   S    
O10   Zn2   S    
C52   O35   A    
C65   H13   S    
C71   H21   S    
O16   Zn7   S    
C24   H41   S    
C49   C65   S    
C23   O16   A    
C19   H37   S    
O51   Zn11  S    
C1    O5    A    
C18   C19   S    
C5    C72   D    
C3    C7    D    
C10   C15   D    
C14   C36   S    
O12   Zn9   S    
O47   Zn10  S    
C12   O6    A    
C20   C25   D    
C61   H34   S    
O21   Zn11  S    
O45   Zn1   S    
C16   Cl3   S    
C29   C33   D    
O7    Zn14  S    
C37   O10   A    
C51   O42   A    
O22   Zn12  S    
C17   C39   S    
C4    C13   S    
C35   C42   S    
C59   H12   S    
C15   C37   S    
C42   O50   A    
C58   H1    S    
C58   C66   S    
C55   O38   A    
C46   O28   A    
C39   O21   A    
O1    Zn1   S    
C12   O15   A    
C4    H26   S    
C40   O22   A    
C17   Cl4   S    
C7    H29   S    
C49   O40   A    
C70   C71   D    
C6    H28   S    
C69   H16   S    
C28   H2    S    
C64   H11   S    
O19   Zn9   S    
C21   H39   S    
C30   H4    S    
C3    H25   S    
C22   H40   S    
C57   O39   A    
C45   C53   S    
C5    C34   S    
C50   O41   A    
C2    C6    D    
O46   Zn9   S    
C54   O46   A    
O43   Zn4   S    
O24   Zn13  S    
O5    Zn12  S    
C7    C12   S    
C62   H9    S    
C54   C56   S    
C49   O31   A    
C27   C31   D    
C33   C43   S    
C14   Cl1   S    
C47   O29   A    
O26   Zn15  S    
C28   C32   D    
C70   H17   S    
C51   C63   S    
C26   H43   S    
C41   O24   A    
O3    Zn7   S    
C57   O48   A    
C43   O51   A    
O1    Zn5   S    
O42   Zn3   S    
O34   Zn8   S    
C56   C68   D    
C41   O49   A    
O28   Zn2   S    
O8    Zn15  S    
C67   C69   D    
C9    C14   D    
C44   O52   A    
C29   C30   S    
C61   C65   D    
C59   C68   S    
C45   H18   S    
C11   C16   D    
C47   O3    A    
C29   H3    S    
O48   Zn11  S    
O34   Zn11  S    
O18   Zn1   S    
O44   Zn1   S    
O12   Zn2   S    
C57   C71   S    
C33   H7    S    
C25   C48   S    
O49   Zn9   S    
C40   O45   A    
C26   C47   S    
O1    Zn12  S    
C30   C35   D    
C22   C46   S    
O23   Zn7   S    
C63   H10   S    
C67   H20   S    
C24   C44   S    
O23   Zn14  S    
O40   Zn16  S    
C1    O14   A    
C2    C10   S    
C55   O47   A    
C27   C28   S    
C23   O7    A    
C39   O13   A    
O2    Zn6   S    
C51   O33   A    
C31   C41   S    
C18   C22   D    
O33   Zn14  S    
O6    Zn13  S    
O15   Zn6   S    
C18   H36   S    
O32   Zn13  S    
C8    H30   S    
O12   Zn13  S    
C48   O4    A    
C55   C67   S    
C35   H8    S    
C53   O44   A    
C13   C17   D    
O27   Zn16  S    
C9    H31   S    
C32   H6    S    
O34   Zn15  S    
C34   O17   A    
C59   C63   D    
C31   H5    S    
O34   Zn4   S    
O25   Zn14  S    
C60   C64   D    
C38   O11   A    
C19   C24   D    
C13   H35   S    
C43   O26   A    
O35   Zn15  S    
C36   O9    A    
C54   O37   A    
C20   H38   S    
O38   Zn7   S    
O23   Zn10  S    
O17   Zn8   S    
C60   C69   S    
C6    C23   S    
O11   Zn3   S    
O37   Zn6   S    
C32   C40   S    
O14   Zn5   S    
O13   Zn4   S    
O20   Zn10  S    
O4    Zn8   S    
O36   Zn5   S    
C3    C11   S    
C52   O43   A    
C2    H24   S    
C50   O32   A    
C15   Cl2   S    
C20   C21   S    
C53   O36   A    
C34   O8    A    
C37   O19   A    
O9    Zn16  S    
O12   Zn6   S    
C45   C66   D    
C38   O20   A    
C46   O2    A    
C52   C62   S    
O29   Zn3   S    
C42   O25   A    
C36   O18   A    
C44   O27   A    
O50   Zn10  S    
C16   C38   S    
O1    Zn16  S    
