data_mof_unit_pretest_579.cif
_audit_creation_date              2012-12-11T16:27:23-0500
_audit_creation_method            fapswitch 2.2
_symmetry_space_group_name_H-M    P1
_symmetry_Int_Tables_number       1
_space_group_crystal_system       triclinic
_cell_length_a                    21.650515
_cell_length_b                    6.916361
_cell_length_c                    14.767373
_cell_angle_alpha                 90.478886
_cell_angle_beta                  105.531944
_cell_angle_gamma                 90.413256
_cell_volume                      2130.37648117

loop_
_atom_site_label
_atom_site_type_symbol
_atom_type_description
_atom_site_fract_x
_atom_site_fract_y
_atom_site_fract_z
_atom_type_partial_charge
O1    O     O_R   0.835850 0.638310 0.002120 -0.537827
O2    O     O_R   0.164150 0.361690 0.997880 -0.537828
O3    O     O_R   0.664150 0.138310 0.997880 -0.533904
O4    O     O_R   0.335850 0.861690 0.002120 -0.533904
O5    O     O_R   0.717530 0.306070 0.861970 -0.541967
O6    O     O_R   0.282470 0.693930 0.138030 -0.541967
O7    O     O_R   0.782470 0.806070 0.138030 -0.545036
O8    O     O_R   0.217530 0.193930 0.861970 -0.545036
C1    C     C_R   0.705003 0.475736 0.824417 0.695593
C2    C     C_R   0.294997 0.524264 0.175583 0.695593
C3    C     C_R   0.794951 0.978415 0.175425 0.694185
C4    C     C_R   0.205049 0.021585 0.824575 0.694185
O9    O     O_R   0.838690 0.308440 0.993250 -0.534936
O10   O     O_R   0.161310 0.691560 0.006750 -0.534936
O11   O     O_R   0.661310 0.808440 0.006750 -0.537623
O12   O     O_R   0.338690 0.191560 0.993250 -0.537623
O13   O     O_R   0.786170 0.140510 0.130090 -0.538368
O14   O     O_R   0.213830 0.859490 0.869910 -0.538368
O15   O     O_R   0.713830 0.640510 0.869910 -0.542560
O16   O     O_R   0.286170 0.359490 0.130090 -0.542561
C5    C     C_R   0.865316 0.477926 0.998274 0.696567
C6    C     C_R   0.134684 0.522074 0.001726 0.696567
C7    C     C_R   0.634671 0.976689 0.001838 0.695299
C8    C     C_R   0.365329 0.023311 0.998162 0.695299
O17   O     O_3   0.732630 0.472520 0.044740 -0.368289
O18   O     O_3   0.267370 0.527480 0.955260 -0.368289
O19   O     O_3   0.767370 0.972520 0.955260 -0.368722
O20   O     O_3   0.232630 0.027480 0.044740 -0.368722
V1    V     V_3+5 0.753220 0.196740 0.991700 1.458809
V2    V     V_3+5 0.246780 0.803260 0.008300 1.458809
V3    V     V_3+5 0.746780 0.696740 0.008300 1.449114
V4    V     V_3+5 0.253220 0.303260 0.991700 1.449114
H1    H     H_    0.614666 0.035342 0.324227 0.107606
H2    H     H_    0.385334 0.964657 0.675773 0.107606
H3    H     H_    0.886849 0.424355 0.676633 0.107953
H4    H     H_    0.113151 0.575644 0.323367 0.107953
C9    C     C_R   0.533609 0.957713 0.828247 -0.104501
C10   C     C_R   0.466391 0.042286 0.171753 -0.104501
C11   C     C_R   0.965269 0.531002 0.171378 -0.104314
C12   C     C_R   0.034731 0.468998 0.828621 -0.104314
C13   C     C_R   0.486157 0.952803 0.743174 -0.094912
C14   C     C_R   0.513843 0.047196 0.256826 -0.094912
C15   C     C_R   0.012379 0.552357 0.256227 -0.097491
C16   C     C_R   0.987621 0.447643 0.743773 -0.097491
C17   C     C_R   0.421968 0.968064 0.742085 -0.108585
C18   C     C_R   0.578032 0.031935 0.257915 -0.108584
C19   C     C_R   0.076736 0.560120 0.257228 -0.107742
C20   C     C_R   0.923264 0.439879 0.742772 -0.107742
C21   C     C_R   0.404742 0.988371 0.826093 -0.113944
C22   C     C_R   0.595258 0.011629 0.173907 -0.113944
C23   C     C_R   0.094464 0.547552 0.173351 -0.116435
C24   C     C_R   0.905536 0.452447 0.826649 -0.116435
C25   C     C_R   0.451763 0.993835 0.913500 0.081079
C26   C     C_R   0.548237 0.006165 0.086500 0.081079
C27   C     C_R   0.047788 0.525541 0.086163 0.079795
C28   C     C_R   0.952212 0.474459 0.913837 0.079795
C29   C     C_R   0.517581 0.978798 0.914624 0.083716
C30   C     C_R   0.482419 0.021201 0.085376 0.083716
C31   C     C_R   0.981853 0.515908 0.085161 0.084687
C32   C     C_R   0.018147 0.484092 0.914839 0.084687
C33   C     C_R   0.434122 0.014487 0.998868 -0.176722
C34   C     C_R   0.565878 0.985513 0.001132 -0.176722
C35   C     C_R   0.065939 0.510575 0.000986 -0.176442
C36   C     C_R   0.934061 0.489425 0.999015 -0.176442
H5    H     H_    0.582870 0.945314 0.825463 0.094375
H6    H     H_    0.417130 0.054686 0.174537 0.094375
H7    H     H_    0.915890 0.524574 0.174325 0.097692
H8    H     H_    0.084110 0.475426 0.825675 0.097692
H9    H     H_    0.499299 0.937472 0.677730 0.115995
H10   H     H_    0.500700 0.062527 0.322270 0.115995
H11   H     H_    0.998862 0.562225 0.321585 0.115666
H12   H     H_    0.001138 0.437775 0.678415 0.115666
H13   H     H_    0.354316 0.000820 0.821918 0.076456
H14   H     H_    0.645684 0.999180 0.178082 0.076456
H15   H     H_    0.145073 0.553699 0.177578 0.078097
H16   H     H_    0.854927 0.446300 0.822422 0.078097
C37   C     C_R   0.177185 0.006415 0.723012 -0.039870
C38   C     C_R   0.822815 0.993585 0.276988 -0.039870
C39   C     C_R   0.322594 0.523401 0.277583 -0.043632
C40   C     C_R   0.677406 0.476599 0.722417 -0.043632
C41   C     C_R   0.186720 0.921255 0.568943 -0.155465
C42   C     C_R   0.813280 0.078745 0.431057 -0.155465
C43   C     C_R   0.314915 0.606295 0.432960 -0.156773
C44   C     C_R   0.685085 0.393705 0.567040 -0.156772
C45   C     C_R   0.214124 0.940319 0.665132 -0.173142
C46   C     C_R   0.785876 0.059681 0.334868 -0.173142
C47   C     C_R   0.287153 0.594218 0.336651 -0.170487
C48   C     C_R   0.712847 0.405782 0.663349 -0.170487
C49   C     C_R   0.111920 0.042460 0.685063 -0.212773
C50   C     C_R   0.888080 0.957540 0.314937 -0.212773
C51   C     C_R   0.386960 0.474469 0.314975 -0.212304
C52   C     C_R   0.613040 0.525531 0.685025 -0.212304
C53   C     C_R   0.080948 0.997224 0.589906 0.075271
C54   C     C_R   0.919052 0.002776 0.410094 0.075271
C55   C     C_R   0.418949 0.513815 0.410527 0.075248
C56   C     C_R   0.581051 0.486185 0.589473 0.075248
C57   C     C_R   0.120887 0.952305 0.530887 0.133664
C58   C     C_R   0.879113 0.047694 0.469113 0.133665
C59   C     C_R   0.380085 0.564630 0.470281 0.133286
C60   C     C_R   0.619915 0.435370 0.529719 0.133286
C61   C     C_R   0.012657 0.003204 0.550435 -0.005953
C62   C     C_R   0.987343 0.996795 0.449565 -0.005953
C63   C     C_R   0.487134 0.498267 0.449543 -0.005485
C64   C     C_R   0.512866 0.501732 0.550457 -0.005485
C65   C     C_R   0.031735 0.989042 0.393183 -0.055127
C66   C     C_R   0.968265 0.010958 0.606817 -0.055127
C67   C     C_R   0.468886 0.515934 0.607283 -0.056048
C68   C     C_R   0.531114 0.484065 0.392717 -0.056048
C69   C     C_R   0.096077 0.951146 0.434013 -0.246262
C70   C     C_R   0.903922 0.048854 0.565987 -0.246263
C71   C     C_R   0.405176 0.562625 0.567089 -0.246049
C72   C     C_R   0.594824 0.437374 0.432911 -0.246049
H17   H     H_    0.128356 0.934070 0.389488 0.125858
H18   H     H_    0.871644 0.065930 0.610512 0.125858
H19   H     H_    0.373449 0.585055 0.612053 0.127777
H20   H     H_    0.626551 0.414944 0.387947 0.127777
H21   H     H_    0.912724 0.889418 0.269057 0.120704
H22   H     H_    0.087276 0.110582 0.730943 0.120704
H23   H     H_    0.589811 0.596301 0.731934 0.122308
H24   H     H_    0.410189 0.403698 0.268066 0.122309
H25   H     H_    0.735546 0.090647 0.306183 0.099139
H26   H     H_    0.264454 0.909353 0.693817 0.099139
H27   H     H_    0.762390 0.364625 0.691447 0.100398
H28   H     H_    0.237610 0.635377 0.308553 0.100398
H29   H     H_    0.217021 0.882749 0.524089 0.106360
H30   H     H_    0.782979 0.117251 0.475911 0.106360
H31   H     H_    0.285527 0.649373 0.478417 0.106500
H32   H     H_    0.714473 0.350628 0.521583 0.106500
C73   C     C_1   0.016346 0.038734 0.294787 0.295701
N1    N     N_1   0.004681 0.077676 0.215955 -0.349822
C74   C     C_1   0.983654 0.961266 0.705213 0.295701
N2    N     N_1   0.995319 0.922324 0.784045 -0.349822
C75   C     C_1   0.483758 0.464928 0.705481 0.293662
N3    N     N_1   0.495022 0.424932 0.784157 -0.349046
C76   C     C_1   0.516242 0.535072 0.294519 0.293662
N4    N     N_1   0.504978 0.575067 0.215842 -0.349046

loop_
_geom_bond_atom_site_label_1
_geom_bond_atom_site_label_2
_ccdc_geom_bond_type
O17   V3    S    
C43   C47   A    
O1    C5    A    
C61   C62   A    
C12   C32   A    
C27   C31   A    
O19   V1    S    
O13   V1    S    
O3    C7    A    
C52   C56   A    
O15   V3    S    
C39   C47   A    
C76   N4    T    
C38   C50   A    
O7    C3    A    
C37   C49   A    
C31   C36   A    
C8    C33   S    
C62   C65   A    
C32   C35   A    
C58   C70   A    
O9    V1    S    
C52   H23   S    
C23   H15   S    
C10   C14   A    
C22   H14   S    
C26   C30   A    
C47   H28   S    
O4    C8    A    
C55   C59   A    
C54   C58   A    
O1    V3    S    
H4    C19   S    
O2    V4    S    
C14   C18   A    
O3    V1    S    
C42   H30   S    
C5    C36   S    
C6    C35   S    
C10   C30   A    
C25   C33   A    
C1    O15   A    
C7    C34   S    
C10   H6    S    
C2    O16   A    
C27   C35   A    
O2    C6    A    
C28   C36   A    
C63   C68   A    
O14   V2    S    
C70   H18   S    
C12   C16   A    
C39   C51   A    
C69   H17   S    
C38   C46   A    
C30   C33   A    
O11   C7    A    
C11   C31   A    
O12   C8    A    
C43   C59   A    
C9    C13   A    
H1    C18   S    
C42   C58   A    
C67   C71   A    
C44   H32   S    
O10   V2    S    
C48   H27   S    
H3    C20   S    
C55   C63   A    
C50   C54   A    
O5    V1    S    
O17   V1    S    
C66   C74   S    
O7    V3    S    
O19   V3    S    
O8    V4    S    
C50   H21   S    
O20   V4    S    
C68   C76   S    
C53   C61   A    
C25   C29   A    
O18   V4    S    
C19   C23   A    
C26   C34   A    
C29   C34   A    
C42   C46   A    
C51   C55   A    
O4    V2    S    
C68   C72   A    
C9    H5    S    
C1    C40   S    
C44   C60   A    
C40   C52   A    
C14   H10   S    
O5    C1    A    
C3    C38   S    
C57   C69   A    
C17   C21   A    
O8    C4    A    
C59   C71   A    
C4    C37   S    
C46   H25   S    
O9    C5    A    
C45   H26   S    
H2    C17   S    
C22   C26   A    
C67   C75   S    
O6    V2    S    
C60   C72   A    
C56   C64   A    
C65   C73   S    
C75   N3    T    
C21   H13   S    
C74   N2    T    
C53   C57   A    
C72   H20   S    
C13   H9    S    
C73   N1    T    
O16   V4    S    
C61   C66   A    
C65   C69   A    
C3    O13   A    
C15   H11   S    
C41   H29   S    
C11   H7    S    
C44   C48   A    
C43   H31   S    
C24   H16   S    
O6    C2    A    
C11   C15   A    
C2    C39   S    
O11   V3    S    
O12   V4    S    
C18   C22   A    
O10   C6    A    
O20   V2    S    
C40   C48   A    
C16   C20   A    
C41   C57   A    
C21   C25   A    
C56   C60   A    
C16   H12   S    
C23   C27   A    
C49   C53   A    
C9    C29   A    
C37   C45   A    
C28   C32   A    
C20   C24   A    
C49   H22   S    
C54   C62   A    
C66   C70   A    
C12   H8    S    
C4    O14   A    
C63   C64   A    
C13   C17   A    
C51   H24   S    
C71   H19   S    
C15   C19   A    
C64   C67   A    
C41   C45   A    
C24   C28   A    
O18   V2    S    
