data_mof_unit_pretest_303.cif
_audit_creation_date              2012-12-10T19:12:29-0500
_audit_creation_method            fapswitch 2.2
_symmetry_space_group_name_H-M    P1
_symmetry_Int_Tables_number       1
_space_group_crystal_system       triclinic
_cell_length_a                    15.727202
_cell_length_b                    10.709818
_cell_length_c                    9.719288
_cell_angle_alpha                 87.675921
_cell_angle_beta                  90.117902
_cell_angle_gamma                 90.220685
_cell_volume                      1635.71116837

loop_
_atom_site_label
_atom_site_type_symbol
_atom_type_description
_atom_site_fract_x
_atom_site_fract_y
_atom_site_fract_z
_atom_type_partial_charge
C1    C     C_R   0.500893 0.257477 0.502984 0.847997
C2    C     C_3   0.083052 0.509878 0.500269 0.033962
C3    C     C_3   0.972033 0.605993 0.576438 -0.226448
C4    C     C_3   0.916666 0.510762 0.501344 0.063393
C5    C     C_3   0.028440 0.620222 0.445204 -0.205771
C6    C     C_3   0.970911 0.526222 0.369621 -0.191645
C7    C     C_1   0.173886 0.506664 0.499512 -0.036277
C8    C     C_1   0.825961 0.509100 0.500958 0.008366
C9    C     C_3   0.486852 0.062160 0.659904 0.477992
C10   C     C_3   0.485615 0.920058 0.648679 -0.387522
C11   C     C_3   0.428135 0.074337 0.405852 0.060508
C12   C     C_R   0.337883 0.500383 0.499802 0.907906
C13   C     C_3   0.586798 0.075939 0.453025 -0.575464
C14   C     C_3   0.499354 0.120714 0.508283 -0.036102
C15   C     C_3   0.499613 0.878560 0.498310 0.005580
C16   C     C_3   0.423572 0.930148 0.413689 -0.499924
C17   C     C_3   0.582949 0.934208 0.432279 0.083543
C18   C     C_3   0.495963 0.369839 0.088574 -0.392071
C19   C     C_3   0.498418 0.368883 0.926097 -0.278681
C20   C     C_3   0.420957 0.561386 0.075923 0.179906
C21   C     C_3   0.577896 0.555311 0.075725 0.200920
C22   C     C_3   0.423053 0.562281 0.913253 -0.293626
C23   C     C_R   0.499634 0.742377 0.498189 0.931844
C24   C     C_3   0.574402 0.562509 0.914309 -0.278037
C25   C     C_R   0.662073 0.501117 0.500152 0.936072
C26   C     C_3   0.971081 0.400491 0.556628 0.241181
C27   C     C_3   0.026106 0.417810 0.427171 0.192145
C28   C     C_1   0.249086 0.503450 0.499383 -0.185201
C29   C     C_1   0.750790 0.505567 0.500495 -0.158023
C30   C     C_3   0.027394 0.495426 0.628498 0.194674
H1    H     H_    0.424212 0.881073 0.688293 0.187996
H2    H     H_    0.362905 0.896602 0.461546 0.213106
H3    H     H_    0.601853 0.124303 0.352270 0.174906
H4    H     H_    0.639534 0.100649 0.522936 0.206698
H5    H     H_    0.575951 0.923910 0.319228 0.173768
H6    H     H_    0.448722 0.103233 0.299324 0.150735
H7    H     H_    0.425260 0.895520 0.307528 0.188219
H8    H     H_    0.438034 0.319823 0.127181 0.171743
H9    H     H_    0.550690 0.315266 0.131440 0.172806
H10   H     H_    0.556384 0.319373 0.893803 0.176120
H11   H     H_    0.442532 0.316826 0.888606 0.221920
H12   H     H_    0.364614 0.504183 0.109429 0.138325
H13   H     H_    0.364307 0.516311 0.876065 0.165339
H14   H     H_    0.632594 0.494425 0.106352 0.129770
H15   H     H_    0.633225 0.520421 0.873584 0.161258
H16   H     H_    0.574155 0.661400 0.874623 0.177591
H17   H     H_    0.945632 0.538789 0.263253 0.154481
H18   H     H_    0.421387 0.659361 0.868012 0.164873
H19   H     H_    0.053940 0.709492 0.399910 0.166839
H20   H     H_    0.947647 0.682859 0.638500 0.163112
H21   H     H_    0.534347 0.876505 0.716659 0.191106
N1    N     N_3   0.498170 0.499750 0.138610 -0.066370
N2    N     N_3   0.498850 0.496730 0.861320 -0.061986
O1    O     O_R   0.499980 0.314910 0.616040 -0.604971
O2    O     O_R   0.500040 0.314680 0.383960 -0.646996
O3    O     O_R   0.376750 0.500100 0.616020 -0.608667
O4    O     O_R   0.376810 0.499870 0.383940 -0.617734
O5    O     O_R   0.499960 0.685320 0.616040 -0.661551
O6    O     O_R   0.500020 0.685090 0.383960 -0.553799
O7    O     O_R   0.623190 0.500130 0.616060 -0.636471
O8    O     O_R   0.623250 0.499900 0.383980 -0.589810
Zn1   Zn    Zn3+2 0.499960 0.500150 0.654960 0.922339
Zn2   Zn    Zn3+2 0.500040 0.499850 0.345040 0.967253
N3    N     N_2   0.059363 0.317261 0.348339 -0.301460
H22   H     H_    0.095118 0.255201 0.407675 0.243988
C31   C     C_3   0.998371 0.256641 0.261590 -0.728990
H23   H     H_    0.030852 0.183469 0.203609 0.243668
H24   H     H_    0.970314 0.325237 0.185970 0.236519
H25   H     H_    0.947052 0.212085 0.324892 0.265690
N4    N     N_2   0.344191 0.127855 0.428375 -0.252072
H26   H     H_    0.344243 0.218372 0.460344 0.250404
C32   C     C_3   0.283371 0.112887 0.318053 -0.753937
H27   H     H_    0.220772 0.149388 0.349246 0.243702
H28   H     H_    0.275027 0.012879 0.295460 0.243382
H29   H     H_    0.304662 0.165870 0.223547 0.227799
N5    N     N_2   0.662288 0.870168 0.469530 -0.287002
H30   H     H_    0.712035 0.896300 0.405402 0.252750
C33   C     C_3   0.688139 0.852401 0.612096 -0.729992
H31   H     H_    0.756180 0.825001 0.616832 0.231176
H32   H     H_    0.651898 0.774469 0.662352 0.244574
H33   H     H_    0.680930 0.939252 0.668984 0.259475
Br1   Br    Br    0.928593 0.242408 0.633871 -0.558478
Br2   Br    Br    0.613575 0.715555 0.143992 -0.606377
N6    N     N_2   0.408826 0.686876 0.124658 -0.250738
H34   H     H_    0.447888 0.753638 0.078718 0.252786
C34   C     C_3   0.321246 0.728235 0.128274 -0.831815
H35   H     H_    0.318411 0.825794 0.161924 0.239085
H36   H     H_    0.284086 0.668246 0.202340 0.257391
H37   H     H_    0.292075 0.725163 0.024222 0.237562
N7    N     N_2   0.061841 0.479946 0.766443 -0.276569
H38   H     H_    0.113834 0.536482 0.782498 0.229255
C35   C     C_3   0.000160 0.484194 0.876218 -0.734623
H39   H     H_    0.031848 0.461209 0.976197 0.238687
H40   H     H_    0.948546 0.415090 0.861506 0.277445
H41   H     H_    0.972483 0.579277 0.879938 0.222477
Br3   Br    Br    0.377814 0.114156 0.739722 -0.584761
N8    N     N_2   0.557114 0.094219 0.752607 -0.318676
H42   H     H_    0.591841 0.174220 0.731424 0.232311
C36   C     C_3   0.552359 0.057840 0.898479 -0.779732
H43   H     H_    0.614852 0.074778 0.947835 0.238718
H44   H     H_    0.536533 0.957598 0.915819 0.256802
H45   H     H_    0.503693 0.112917 0.951027 0.256428

loop_
_geom_bond_atom_site_label_1
_geom_bond_atom_site_label_2
_ccdc_geom_bond_type
O5    Zn1   S    
C23   O5    A    
C22   H18   S    
C31   H24   S    
C2    C7    S    
C30   N7    S    
N8    H42   S    
C11   N4    S    
C18   N1    S    
C23   O6    A    
C26   C27   S    
C12   C28   S    
C24   H15   S    
C11   H6    S    
N6    C34   S    
C10   C15   S    
C5    C6    S    
C11   C14   S    
C33   H32   S    
C31   H25   S    
C15   C16   S    
O7    Zn1   S    
C18   C19   S    
C11   C16   S    
O8    Zn2   S    
C10   H1    S    
C6    C27   S    
O2    Zn2   S    
C17   N5    S    
N4    H26   S    
C25   O7    A    
C9    C10   S    
C4    C8    S    
C16   H7    S    
C19   N2    S    
C15   C23   S    
C31   H23   S    
C26   Br1   S    
C13   C14   S    
C5    H19   S    
C32   H29   S    
C10   H21   S    
N8    C36   S    
C3    H20   S    
O4    Zn2   S    
C22   N2    S    
C25   C29   S    
C4    C26   S    
C6    H17   S    
C21   Br2   S    
N6    H34   S    
C32   H28   S    
C27   N3    S    
C9    C14   S    
C33   H31   S    
O1    Zn1   S    
C24   N2    S    
N1    Zn2   S    
C35   H41   S    
C7    C28   T    
N3    C31   S    
C3    C30   S    
C18   H9    S    
C13   H3    S    
C21   H14   S    
N2    Zn1   S    
N7    C35   S    
C22   H13   S    
C35   H40   S    
C25   O8    A    
N5    H30   S    
C9    Br3   S    
C2    C27   S    
C1    O1    A    
C12   O4    A    
C4    C6    S    
C36   H44   S    
C20   C22   S    
C26   C30   S    
C20   N6    S    
O3    Zn1   S    
C2    C5    S    
C8    C29   T    
C3    C4    S    
C15   C17   S    
C9    N8    S    
C34   H35   S    
N5    C33   S    
C32   H27   S    
C3    C5    S    
C34   H37   S    
C20   H12   S    
C16   H2    S    
O6    Zn2   S    
C36   H43   S    
C13   C17   S    
C2    C30   S    
C24   H16   S    
N3    H22   S    
C18   H8    S    
C13   H4    S    
C20   N1    S    
C33   H33   S    
N7    H38   S    
C35   H39   S    
C12   O3    A    
C34   H36   S    
C1    O2    A    
C19   H10   S    
C36   H45   S    
C21   C24   S    
N4    C32   S    
C1    C14   S    
C17   H5    S    
C21   N1    S    
C19   H11   S    
