data_mof_unit_pretest_903.cif
_audit_creation_date              2012-12-10T19:12:23-0500
_audit_creation_method            fapswitch 2.2
_symmetry_space_group_name_H-M    P1
_symmetry_Int_Tables_number       1
_space_group_crystal_system       triclinic
_cell_length_a                    15.728809
_cell_length_b                    10.64363
_cell_length_c                    9.704824
_cell_angle_alpha                 89.965691
_cell_angle_beta                  90.198718
_cell_angle_gamma                 90.108942
_cell_volume                      1624.68734651

loop_
_atom_site_label
_atom_site_type_symbol
_atom_type_description
_atom_site_fract_x
_atom_site_fract_y
_atom_site_fract_z
_atom_type_partial_charge
C1    C     C_R   0.500718 0.257586 0.499892 0.883027
C2    C     C_3   0.082965 0.502535 0.497967 0.106793
C3    C     C_3   0.972532 0.575309 0.605366 -0.294229
C4    C     C_3   0.917069 0.503166 0.500916 0.064297
C5    C     C_3   0.028380 0.621584 0.483493 -0.187173
C6    C     C_3   0.970951 0.549965 0.379200 -0.189336
C7    C     C_1   0.173750 0.501862 0.498586 -0.001370
C8    C     C_1   0.826262 0.502060 0.501144 0.019256
C9    C     C_3   0.584319 0.070964 0.574421 0.810368
C10   C     C_3   0.582239 0.925530 0.572566 -0.354612
C11   C     C_3   0.420037 0.073066 0.571257 -0.537567
C12   C     C_R   0.337833 0.500197 0.499745 0.894276
C13   C     C_3   0.500759 0.071407 0.348867 -0.436738
C14   C     C_3   0.502012 0.121202 0.499719 -0.010979
C15   C     C_3   0.500131 0.878811 0.499922 -0.036681
C16   C     C_3   0.419857 0.928538 0.576134 0.401512
C17   C     C_3   0.499692 0.928729 0.349182 -0.500853
C18   C     C_3   0.411807 0.477246 0.080435 -0.252196
C19   C     C_3   0.412026 0.476275 0.917831 -0.343878
C20   C     C_3   0.529035 0.620801 0.081200 -0.318102
C21   C     C_3   0.554464 0.399768 0.082792 -0.261562
C22   C     C_3   0.528803 0.619684 0.918224 0.402401
C23   C     C_R   0.499581 0.742448 0.499797 0.885608
C24   C     C_3   0.552845 0.395441 0.920551 -0.245514
C25   C     C_R   0.662168 0.500174 0.500278 0.904982
C26   C     C_3   0.972430 0.386049 0.514914 0.521700
C27   C     C_3   0.027290 0.430802 0.392908 -0.326670
C28   C     C_1   0.248994 0.501063 0.499161 -0.208969
C29   C     C_1   0.751013 0.501063 0.500883 -0.172338
C30   C     C_3   0.028051 0.457195 0.617454 0.393498
H1    H     H_    0.051611 0.373003 0.306472 0.157127
H2    H     H_    0.586278 0.887240 0.679160 0.215800
H3    H     H_    0.413738 0.112800 0.676721 0.206156
H4    H     H_    0.443397 0.106145 0.293027 0.186647
H5    H     H_    0.557427 0.105196 0.291098 0.223698
H6    H     H_    0.556326 0.893747 0.292308 0.218158
H7    H     H_    0.441964 0.895067 0.293406 0.183676
H8    H     H_    0.363085 0.105769 0.512976 0.143124
H9    H     H_    0.362976 0.893359 0.517962 0.054607
H10   H     H_    0.367510 0.551227 0.117266 0.158737
H11   H     H_    0.386613 0.386209 0.119385 0.164006
H12   H     H_    0.386018 0.385399 0.879609 0.177837
H13   H     H_    0.368285 0.550473 0.879140 0.160063
H14   H     H_    0.487645 0.698526 0.117651 0.136827
H15   H     H_    0.483906 0.694113 0.883976 0.157982
H16   H     H_    0.620809 0.415022 0.119192 0.163495
H17   H     H_    0.534524 0.306778 0.123753 0.165251
H18   H     H_    0.528305 0.302313 0.886846 0.185370
H19   H     H_    0.618448 0.401422 0.879194 0.178971
H20   H     H_    0.593498 0.641757 0.122820 0.169046
H21   H     H_    0.944950 0.589047 0.281736 0.161254
H22   H     H_    0.053712 0.718182 0.469654 0.147973
H23   H     H_    0.948584 0.632999 0.692176 0.165665
H24   H     H_    0.638772 0.888043 0.517346 0.175190
N1    N     N_3   0.498170 0.499750 0.138610 -0.048177
N2    N     N_3   0.498850 0.496730 0.861320 -0.066559
O1    O     O_R   0.499980 0.314910 0.616040 -0.607309
O2    O     O_R   0.500040 0.314680 0.383960 -0.639013
O3    O     O_R   0.376750 0.500100 0.616020 -0.626026
O4    O     O_R   0.376810 0.499870 0.383940 -0.626038
O5    O     O_R   0.499960 0.685320 0.616040 -0.554999
O6    O     O_R   0.500020 0.685090 0.383960 -0.645622
O7    O     O_R   0.623190 0.500130 0.616060 -0.574270
O8    O     O_R   0.623250 0.499900 0.383980 -0.626972
Zn1   Zn    Zn3+2 0.499960 0.500150 0.654960 0.972673
Zn2   Zn    Zn3+2 0.500040 0.499850 0.345040 0.904396
O9    O     O_3   0.420546 0.888106 0.715769 -0.604507
C31   C     C_3   0.337436 0.860191 0.760640 -0.364120
H25   H     H_    0.312159 0.775923 0.706366 0.171704
H26   H     H_    0.294166 0.941748 0.745928 0.166618
H27   H     H_    0.339678 0.838264 0.872355 0.180418
O10   O     O_3   0.936538 0.265973 0.535723 -0.592407
C32   C     C_3   0.000491 0.174201 0.524229 -0.287579
H28   H     H_    0.054118 0.192088 0.596689 0.180738
H29   H     H_    0.024063 0.167984 0.416612 0.151686
H30   H     H_    0.972783 0.081507 0.551155 0.198129
O11   O     O_3   0.608498 0.653074 0.863541 -0.745115
H31   H     H_    0.653088 0.604847 0.912762 0.320748
O12   O     O_3   0.060815 0.408481 0.740413 -0.777111
H32   H     H_    0.010452 0.386656 0.796733 0.338443
O13   O     O_3   0.590487 0.114947 0.711586 -0.781823
H33   H     H_    0.544393 0.076331 0.766782 0.330060
O14   O     O_3   0.657313 0.110545 0.502361 -0.758080
H34   H     H_    0.666397 0.201006 0.522643 0.344502

loop_
_geom_bond_atom_site_label_1
_geom_bond_atom_site_label_2
_ccdc_geom_bond_type
C19   N2    S    
O7    Zn1   S    
C11   H8    S    
C26   O10   S    
C32   H28   S    
C2    C7    S    
C4    C8    S    
O13   H33   S    
O11   H31   S    
C26   C27   S    
C12   C28   S    
C10   H2    S    
C8    C29   T    
C13   H5    S    
C10   C15   S    
C5    C6    S    
C11   C14   S    
N2    Zn1   S    
C18   C19   S    
C25   O7    A    
C18   H10   S    
C20   H20   S    
C12   O3    A    
O2    Zn2   S    
C23   O6    A    
C6    C27   S    
C31   H25   S    
C5    H22   S    
C2    C27   S    
C17   H6    S    
C6    H21   S    
C9    C10   S    
C19   H12   S    
C15   C23   S    
O4    Zn2   S    
C13   C14   S    
C32   H29   S    
C20   N1    S    
C20   H14   S    
C19   H13   S    
C25   C29   S    
O6    Zn2   S    
C27   H1    S    
O9    C31   S    
C24   H18   S    
C11   H3    S    
C4    C6    S    
C18   H11   S    
C21   N1    S    
C22   N2    S    
C7    C28   T    
C25   O8    A    
O8    Zn2   S    
C3    C30   S    
C9    C14   S    
C1    O1    A    
C11   C16   S    
O14   H34   S    
C16   O9    S    
C17   H7    S    
C18   N1    S    
C9    O14   S    
C30   O12   S    
C20   C22   S    
C26   C30   S    
C32   H30   S    
C2    C5    S    
C3    C4    S    
N1    Zn2   S    
C21   H16   S    
C24   H19   S    
C15   C17   S    
C22   O11   S    
O1    Zn1   S    
O10   C32   S    
C3    C5    S    
C4    C26   S    
C24   N2    S    
C13   C17   S    
C2    C30   S    
C13   H4    S    
C1    O2    A    
O3    Zn1   S    
C3    H23   S    
C31   H27   S    
C10   H24   S    
C16   H9    S    
O12   H32   S    
C12   O4    A    
O5    Zn1   S    
C23   O5    A    
C22   H15   S    
C31   H26   S    
C21   C24   S    
C1    C14   S    
C15   C16   S    
C9    O13   S    
C21   H17   S    
