data_mof_unit_pretest_1997.cif
_audit_creation_date              2012-10-26T21:03:12-0400
_audit_creation_method            fapswitch 2.2
_symmetry_space_group_name_H-M    P1
_symmetry_Int_Tables_number       1
_space_group_crystal_system       triclinic
_cell_length_a                    14.331151
_cell_length_b                    8.802154
_cell_length_c                    7.444773
_cell_angle_alpha                 103.110192
_cell_angle_beta                  94.316678
_cell_angle_gamma                 91.321761
_cell_volume                      911.269335528

loop_
_atom_site_label
_atom_site_type_symbol
_atom_type_description
_atom_site_fract_x
_atom_site_fract_y
_atom_site_fract_z
_atom_type_partial_charge
C1    C     C_R   0.496034 0.200410 0.454154 0.533631
C2    C     C_1   0.957240 0.499896 0.498692 0.011886
C3    C     C_2   0.483700 0.034802 0.432108 -0.074368
C4    C     C_2   0.516300 0.965198 0.567892 -0.074367
C5    C     C_1   0.427704 0.953077 0.265274 0.231184
C6    C     C_1   0.572296 0.046923 0.734726 0.231184
C7    C     C_R   0.503966 0.799590 0.545846 0.533631
C8    C     C_R   0.331128 0.499989 0.501694 0.541735
C9    C     C_R   0.668872 0.500011 0.498306 0.541735
C10   C     C_1   0.228940 0.500309 0.504494 -0.022175
C11   C     C_1   0.771060 0.499691 0.495506 -0.022175
C12   C     C_1   0.143491 0.500299 0.503881 -0.026432
C13   C     C_1   0.856509 0.499701 0.496119 -0.026432
C14   C     C_1   0.042760 0.500104 0.501308 0.011886
Cu1   Cu    Cu3+1 0.509570 0.517380 0.684380 1.003534
Cu2   Cu    Cu3+1 0.490430 0.482620 0.315620 1.003534
H1    H     H_    0.430701 0.376737 0.949112 0.244702
H2    H     H_    0.569299 0.623263 0.050888 0.244702
N1    N     N_2   0.476020 0.456430 0.038520 -0.234178
N2    N     N_2   0.523980 0.543570 0.961480 -0.234178
N3    N     N_1   0.383198 0.888675 0.132434 -0.261987
N4    N     N_1   0.616801 0.111325 0.867566 -0.261987
O1    O     O_R   0.506220 0.286130 0.619770 -0.501959
O2    O     O_R   0.493780 0.713870 0.380230 -0.501959
O3    O     O_R   0.490060 0.256780 0.308370 -0.481563
O4    O     O_R   0.509940 0.743220 0.691630 -0.481563
O5    O     O_R   0.384130 0.514680 0.655740 -0.484218
O6    O     O_R   0.615870 0.485320 0.344260 -0.484219
O7    O     O_R   0.367980 0.485330 0.344330 -0.479793
O8    O     O_R   0.632020 0.514670 0.655670 -0.479793

loop_
_geom_bond_atom_site_label_1
_geom_bond_atom_site_label_2
_ccdc_geom_bond_type
Cu2   O6    S    
C9    C11   S    
Cu1   O5    S    
N1    N2    D    
Cu1   O1    S    
Cu2   O2    S    
C1    O3    A    
C11   C13   T    
C7    O4    A    
C10   C12   T    
C9    O8    A    
C4    C7    S    
C8    O7    A    
C4    C6    S    
H1    N1    S    
C12   C14   S    
C1    O1    A    
H2    N2    S    
Cu2   N1    S    
Cu1   N2    S    
C2    C14   T    
Cu1   Cu2   S    
C7    O2    A    
C6    N4    T    
C5    N3    T    
Cu1   O8    S    
C8    C10   S    
Cu2   O3    S    
C2    C13   S    
C8    O5    A    
Cu1   O4    S    
C3    C5    S    
Cu2   O7    S    
C3    C4    D    
C9    O6    A    
C1    C3    S    
