data_mof_unit_pretest_1268.cif
_audit_creation_date              2012-12-11T16:26:22-0500
_audit_creation_method            fapswitch 2.2
_symmetry_space_group_name_H-M    P1
_symmetry_Int_Tables_number       1
_space_group_crystal_system       triclinic
_cell_length_a                    14.030259
_cell_length_b                    14.030254
_cell_length_c                    31.911693
_cell_angle_alpha                 89.999975
_cell_angle_beta                  90.00003
_cell_angle_gamma                 120.000234
_cell_volume                      5440.14749522

loop_
_atom_site_label
_atom_site_type_symbol
_atom_type_description
_atom_site_fract_x
_atom_site_fract_y
_atom_site_fract_z
_atom_type_partial_charge
C1    C     C_R   0.568070 0.443805 0.810618 0.541079
C2    C     C_R   0.443805 0.568070 0.189382 0.541081
C3    C     C_R   0.431930 0.875735 0.310618 0.541079
C4    C     C_R   0.124264 0.556195 0.189382 0.541079
C5    C     C_1   0.004076 0.523367 0.018729 -0.029783
C6    C     C_1   0.519301 0.995909 0.481272 -0.029782
C7    C     C_1   0.476609 0.480692 0.018729 -0.029782
C8    C     C_1   0.004081 0.523385 0.481271 -0.029782
C9    C     C_1   0.519297 0.995906 0.018727 -0.029783
C10   C     C_1   0.476609 0.480693 0.481271 -0.029782
C11   C     C_1   0.523385 0.004078 0.518729 -0.029782
C12   C     C_R   0.875735 0.431930 0.689382 0.541078
C13   C     C_1   0.995907 0.519283 0.981273 -0.029783
C14   C     C_1   0.480694 0.476609 0.518728 -0.029782
C15   C     C_1   0.523382 0.004075 0.981271 -0.029783
C16   C     C_1   0.995912 0.519301 0.518728 -0.029783
C17   C     C_1   0.480694 0.476608 0.981272 -0.029783
C18   C     C_R   0.929172 0.469376 0.851789 0.019991
C19   C     C_R   0.540201 0.070824 0.648211 0.019992
C20   C     C_R   0.530624 0.459797 0.851789 0.019992
C21   C     C_R   0.929174 0.469377 0.648211 0.019992
C22   C     C_R   0.540201 0.070823 0.851789 0.019991
C23   C     C_R   0.556195 0.124264 0.810618 0.541079
C24   C     C_R   0.530624 0.459798 0.648211 0.019993
C25   C     C_R   0.469376 0.929173 0.351789 0.019992
C26   C     C_R   0.070824 0.540202 0.148211 0.019992
C27   C     C_R   0.459797 0.530624 0.351789 0.019993
C28   C     C_R   0.469375 0.929173 0.148210 0.019992
C29   C     C_R   0.070824 0.540201 0.351789 0.019993
C30   C     C_R   0.459798 0.530623 0.148211 0.019992
C31   C     C_R   0.927791 0.557561 0.872268 -0.127985
C32   C     C_R   0.629757 0.072174 0.627738 -0.127985
C33   C     C_R   0.442413 0.370242 0.872262 -0.127984
C34   C     C_R   0.568070 0.443805 0.689382 0.541081
C35   C     C_R   0.927818 0.557580 0.627736 -0.127985
C36   C     C_R   0.629759 0.072178 0.872263 -0.127983
C37   C     C_R   0.442413 0.370242 0.627738 -0.127984
C38   C     C_R   0.557585 0.927826 0.372262 -0.127985
C39   C     C_R   0.072203 0.629767 0.127733 -0.127985
C40   C     C_R   0.370241 0.442413 0.372262 -0.127984
C41   C     C_R   0.557583 0.927824 0.127737 -0.127985
C42   C     C_R   0.072170 0.629756 0.372262 -0.127984
C43   C     C_R   0.370242 0.442412 0.127738 -0.127983
C44   C     C_R   0.954722 0.577381 0.914650 -0.114688
C45   C     C_R   0.875735 0.431930 0.810618 0.541078
C46   C     C_R   0.622649 0.045237 0.585357 -0.114686
C47   C     C_R   0.422586 0.377348 0.914643 -0.114686
C48   C     C_R   0.954751 0.577405 0.585355 -0.114686
C49   C     C_R   0.622650 0.045241 0.914644 -0.114686
C50   C     C_R   0.422585 0.377348 0.585357 -0.114686
C51   C     C_R   0.577410 0.954758 0.414644 -0.114686
C52   C     C_R   0.045266 0.622653 0.085352 -0.114688
C53   C     C_R   0.377348 0.422586 0.414643 -0.114686
C54   C     C_R   0.577407 0.954755 0.085355 -0.114687
C55   C     C_R   0.045235 0.622648 0.414643 -0.114686
C56   C     C_R   0.556195 0.124264 0.689382 0.541079
C57   C     C_R   0.377349 0.422584 0.085357 -0.114684
C58   C     C_R   0.984061 0.509970 0.936753 0.040788
C59   C     C_R   0.525911 0.015926 0.563249 0.040788
C60   C     C_R   0.490017 0.474083 0.936752 0.040789
C61   C     C_R   0.984066 0.509981 0.563248 0.040789
C62   C     C_R   0.525910 0.015924 0.936751 0.040787
C63   C     C_R   0.490016 0.474084 0.563248 0.040789
C64   C     C_R   0.509980 0.984063 0.436753 0.040789
C65   C     C_R   0.015924 0.525901 0.063249 0.040788
C66   C     C_R   0.474084 0.490016 0.436752 0.040789
C67   C     C_R   0.443805 0.568070 0.310618 0.541081
C68   C     C_R   0.509977 0.984060 0.063247 0.040789
C69   C     C_R   0.015928 0.525912 0.436752 0.040789
C70   C     C_R   0.474084 0.490015 0.063248 0.040789
C71   C     C_R   0.993019 0.427026 0.916038 -0.113320
C72   C     C_R   0.434018 0.006999 0.583958 -0.113319
C73   C     C_R   0.572989 0.565976 0.916044 -0.113321
C74   C     C_R   0.992999 0.427019 0.583958 -0.113319
C75   C     C_R   0.434015 0.006992 0.916040 -0.113319
C76   C     C_R   0.572988 0.565977 0.583957 -0.113320
C77   C     C_R   0.427010 0.992986 0.416044 -0.113319
C78   C     C_R   0.431930 0.875735 0.189382 0.541077
C79   C     C_R   0.006967 0.434000 0.083964 -0.113319
C80   C     C_R   0.565977 0.572987 0.416043 -0.113319
C81   C     C_R   0.427009 0.992986 0.083956 -0.113322
C82   C     C_R   0.007006 0.434019 0.416042 -0.113319
C83   C     C_R   0.565977 0.572987 0.083957 -0.113320
C84   C     C_R   0.965957 0.406851 0.873698 -0.127421
C85   C     C_R   0.440902 0.034065 0.626299 -0.127418
C86   C     C_R   0.593171 0.559094 0.873703 -0.127421
C87   C     C_R   0.965936 0.406838 0.626298 -0.127419
C88   C     C_R   0.440900 0.034059 0.873700 -0.127418
C89   C     C_R   0.124264 0.556195 0.310618 0.541079
C90   C     C_R   0.593170 0.559095 0.626297 -0.127418
C91   C     C_R   0.406830 0.965924 0.373703 -0.127417
C92   C     C_R   0.034035 0.440890 0.126304 -0.127419
C93   C     C_R   0.559095 0.593169 0.373703 -0.127417
C94   C     C_R   0.406830 0.965925 0.126297 -0.127421
C95   C     C_R   0.034071 0.440902 0.373702 -0.127417
C96   C     C_R   0.559095 0.593170 0.126297 -0.127417
Cr1   Cr    Cr6+3 0.504240 0.249200 0.750000 1.008092
Cr2   Cr    Cr6+3 0.744960 0.495760 0.750000 1.008091
Cr3   Cr    Cr6+3 0.750800 0.255040 0.750000 1.008092
Cr4   Cr    Cr6+3 0.249200 0.504240 0.250000 1.008092
Cr5   Cr    Cr6+3 0.495760 0.744960 0.250000 1.008092
Cr6   Cr    Cr6+3 0.255040 0.750800 0.250000 1.008091
H1    H     H_    0.899620 0.607081 0.856307 0.127707
H2    H     H_    0.607119 0.899679 0.143702 0.127698
H3    H     H_    0.100316 0.707438 0.356297 0.127698
H4    H     H_    0.292562 0.392874 0.143704 0.127702
H5    H     H_    0.052160 0.694063 0.069434 0.105667
H6    H     H_    0.641948 0.947892 0.430557 0.105665
H7    H     H_    0.305946 0.358044 0.069444 0.105667
H8    H     H_    0.052101 0.694052 0.430557 0.105664
H9    H     H_    0.641943 0.947887 0.069442 0.105664
H10   H     H_    0.305944 0.358048 0.430557 0.105664
H11   H     H_    0.694052 0.052107 0.569443 0.105666
H12   H     H_    0.707439 0.100324 0.643702 0.127702
H13   H     H_    0.947829 0.641897 0.930567 0.105666
H14   H     H_    0.358046 0.305945 0.569443 0.105665
H15   H     H_    0.694055 0.052114 0.930559 0.105668
H16   H     H_    0.947877 0.641937 0.569441 0.105665
H17   H     H_    0.358046 0.305945 0.930556 0.105665
H18   H     H_    0.032068 0.370541 0.141173 0.125917
H19   H     H_    0.338430 0.967865 0.358839 0.125918
H20   H     H_    0.629435 0.661572 0.141161 0.125919
H21   H     H_    0.032130 0.370561 0.358837 0.125918
H22   H     H_    0.338431 0.967867 0.141162 0.125916
H23   H     H_    0.392875 0.292561 0.856297 0.127699
H24   H     H_    0.629436 0.661570 0.358839 0.125918
H25   H     H_    0.370561 0.032121 0.641163 0.125919
H26   H     H_    0.967926 0.338471 0.858828 0.125916
H27   H     H_    0.661572 0.629435 0.641161 0.125917
H28   H     H_    0.370557 0.032112 0.858835 0.125919
H29   H     H_    0.967884 0.338443 0.641164 0.125917
H30   H     H_    0.661573 0.629435 0.858839 0.125916
H31   H     H_    0.983968 0.358683 0.066951 0.106789
H32   H     H_    0.374675 0.015955 0.433060 0.106785
H33   H     H_    0.641281 0.625323 0.066940 0.106786
H34   H     H_    0.899666 0.607111 0.643700 0.127701
H35   H     H_    0.984035 0.358714 0.433058 0.106785
H36   H     H_    0.374674 0.015956 0.066940 0.106785
H37   H     H_    0.641282 0.625321 0.433060 0.106785
H38   H     H_    0.358713 0.984024 0.566943 0.106787
H39   H     H_    0.016016 0.374707 0.933051 0.106789
H40   H     H_    0.625323 0.641281 0.566940 0.106785
H41   H     H_    0.358707 0.984013 0.933056 0.106787
H42   H     H_    0.015977 0.374689 0.566942 0.106786
H43   H     H_    0.625324 0.641279 0.933060 0.106785
H44   H     H_    0.707443 0.100332 0.856299 0.127705
H45   H     H_    0.392875 0.292562 0.643703 0.127698
H46   H     H_    0.607122 0.899683 0.356297 0.127698
H47   H     H_    0.100378 0.707460 0.143693 0.127707
H48   H     H_    0.292561 0.392877 0.356297 0.127698
O1    O     O_R   0.480350 0.140770 0.796330 -0.519779
O2    O     O_R   0.140770 0.480350 0.203670 -0.519777
O3    O     O_R   0.519650 0.660420 0.296330 -0.519780
O4    O     O_R   0.339580 0.859230 0.203670 -0.519782
O5    O     O_R   0.514930 0.348530 0.793250 -0.500947
O6    O     O_R   0.833600 0.485070 0.706750 -0.500949
O7    O     O_R   0.651470 0.166400 0.793250 -0.500948
O8    O     O_R   0.514930 0.348530 0.706750 -0.500948
O9    O     O_R   0.833600 0.485070 0.793250 -0.500951
O10   O     O_R   0.651470 0.166400 0.706750 -0.500949
O11   O     O_R   0.348530 0.514930 0.293250 -0.500949
O12   O     O_R   0.660420 0.519650 0.703670 -0.519780
O13   O     O_R   0.485070 0.833600 0.206750 -0.500948
O14   O     O_R   0.166400 0.651470 0.293250 -0.500947
O15   O     O_R   0.348530 0.514930 0.206750 -0.500947
O16   O     O_R   0.485070 0.833600 0.293250 -0.500949
O17   O     O_R   0.166400 0.651470 0.206750 -0.500951
O18   O     O_3   0.666667 0.333333 0.750000 -0.228336
O19   O     O_3   0.333333 0.666667 0.250000 -0.228336
O20   O     O_R   0.859230 0.339580 0.796330 -0.519778
O21   O     O_R   0.480350 0.140770 0.703670 -0.519779
O22   O     O_R   0.660420 0.519650 0.796330 -0.519783
O23   O     O_R   0.859230 0.339580 0.703670 -0.519779
O24   O     O_R   0.140770 0.480350 0.296330 -0.519780
O25   O     O_R   0.519650 0.660420 0.203670 -0.519780
O26   O     O_R   0.339580 0.859230 0.296330 -0.519779

loop_
_geom_bond_atom_site_label_1
_geom_bond_atom_site_label_2
_ccdc_geom_bond_type
C19   C56   S    
C84   H26   S    
C21   C87   A    
Cr6   O17   S    
C65   C79   A    
C29   C42   A    
C64   C77   A    
C60   C73   A    
C45   O9    A    
C88   H28   S    
C45   O20   A    
C7    C70   S    
C29   C89   S    
C72   C85   A    
Cr3   O20   S    
Cr4   O2    S    
C8    C69   S    
C68   C81   A    
C71   C84   A    
C82   H35   S    
C56   O21   A    
C38   C51   A    
C2    O25   A    
C58   C71   A    
C54   C68   A    
C63   C76   A    
C35   C48   A    
Cr6   O26   S    
C28   C41   A    
C28   C94   A    
C87   H29   S    
C1    O5    A    
C76   H40   S    
C93   H24   S    
C23   O1    A    
C69   C82   A    
C47   C60   A    
C90   H27   S    
C57   H7    S    
C44   H13   S    
C44   C58   A    
C51   H6    S    
C7    C17   T    
C20   C86   A    
C18   C84   A    
C85   H25   S    
Cr5   O19   S    
Cr4   O11   S    
C82   C95   A    
C22   C88   A    
C57   C70   A    
C28   C78   S    
Cr6   O4    S    
C89   O14   A    
C5    C13   T    
C59   C72   A    
C71   H39   S    
Cr2   O22   S    
Cr6   O19   S    
C47   H17   S    
C39   C52   A    
C78   O13   A    
C8    C16   T    
Cr3   O10   S    
C50   C63   A    
C32   C46   A    
C89   O24   A    
C12   O6    A    
C11   C59   S    
C19   C32   A    
Cr2   O12   S    
C77   H32   S    
C10   C66   S    
C81   H36   S    
C79   H31   S    
Cr2   O6    S    
C25   C91   A    
C31   C44   A    
Cr5   O13   S    
C2    C30   S    
C52   H5    S    
C5    C65   S    
C10   C14   T    
C6    C11   T    
C29   C95   A    
C78   O4    A    
C48   H16   S    
C13   C58   S    
C34   O12   A    
C12   C21   S    
C24   C34   S    
C73   H43   S    
Cr4   O15   S    
C43   H4    S    
C31   H1    S    
C36   C49   A    
C70   C83   A    
C25   C38   A    
C26   C39   A    
C67   O11   A    
Cr3   O23   S    
Cr5   O3    S    
C27   C40   A    
C50   H14   S    
C33   H23   S    
C24   C37   A    
Cr1   O1    S    
C40   H48   S    
C37   H45   S    
C4    O2    A    
C53   C66   A    
C2    O15   A    
C38   H46   S    
C79   C92   A    
C55   C69   A    
C75   H41   S    
C20   C33   A    
C34   O8    A    
C53   H10   S    
C36   H44   S    
Cr3   O7    S    
C55   H8    S    
Cr4   O24   S    
C74   C87   A    
C49   H15   S    
C30   C43   A    
C27   C93   A    
C16   C61   S    
C80   H37   S    
C18   C45   S    
C66   C80   A    
Cr3   O18   S    
C95   H21   S    
C74   H42   S    
C77   C91   A    
C1    C20   S    
C49   C62   A    
C46   H11   S    
Cr4   O19   S    
C83   H33   S    
C51   C64   A    
C19   C85   A    
C24   C90   A    
C35   H34   S    
C4    C26   S    
C4    O17   A    
C6    C64   S    
C21   C35   A    
C61   C74   A    
Cr1   O18   S    
C22   C36   A    
C39   H47   S    
C1    O22   A    
Cr1   O21   S    
C41   H2    S    
C96   H20   S    
C67   O3    A    
Cr1   O8    S    
C92   H18   S    
C9    C68   S    
C3    O26   A    
C56   O10   A    
C81   C94   A    
C86   H30   S    
C48   C61   A    
C42   C55   A    
C33   C47   A    
C83   C96   A    
C23   O7    A    
C37   C50   A    
C15   C62   S    
C54   H9    S    
C14   C63   S    
Cr1   O5    S    
C41   C54   A    
C9    C15   T    
Cr5   O16   S    
C62   C75   A    
C42   H3    S    
C73   C86   A    
C27   C67   S    
C43   C57   A    
C17   C60   S    
C30   C96   A    
C75   C88   A    
C72   H38   S    
C3    C25   S    
Cr2   O9    S    
C46   C59   A    
Cr6   O14   S    
C40   C53   A    
C91   H19   S    
Cr5   O25   S    
C22   C23   S    
C18   C31   A    
C32   H12   S    
C80   C93   A    
C26   C92   A    
Cr2   O18   S    
C52   C65   A    
C3    O16   A    
C76   C90   A    
C12   O23   A    
C94   H22   S    
