data_mof_unit_pretest_1971.cif
_audit_creation_date              2012-12-11T16:15:05-0500
_audit_creation_method            fapswitch 2.2
_symmetry_space_group_name_H-M    P1
_symmetry_Int_Tables_number       1
_space_group_crystal_system       triclinic
_cell_length_a                    13.562025
_cell_length_b                    13.541502
_cell_length_c                    28.441252
_cell_angle_alpha                 90.34081
_cell_angle_beta                  90.144878
_cell_angle_gamma                 60.297942
_cell_volume                      4536.89824947

loop_
_atom_site_label
_atom_site_type_symbol
_atom_type_description
_atom_site_fract_x
_atom_site_fract_y
_atom_site_fract_z
_atom_type_partial_charge
C1    C     C_R   0.279731 0.620550 0.566637 0.545331
C2    C     C_1   0.646971 0.650307 0.653255 0.042426
C3    C     C_1   0.631721 0.231365 0.611745 0.024224
C4    C     C_R   0.621647 0.601008 0.566676 0.546475
C5    C     C_R   0.758301 0.107689 0.721867 -0.060761
C6    C     C_R   0.771652 0.094685 0.770338 0.117094
C7    C     C_R   0.576030 0.246916 0.781977 0.022030
C8    C     C_R   0.563778 0.261526 0.732388 0.044036
C9    C     C_R   0.655607 0.189680 0.702761 -0.019064
C10   C     C_R   0.681517 0.163906 0.800590 -0.006749
C11   C     C_1   0.694018 0.137988 0.850107 -0.009391
C12   C     C_1   0.637745 0.632913 0.612561 0.048328
C13   C     C_1   0.647438 0.205955 0.652607 -0.026077
C14   C     C_1   0.705458 0.106883 0.890278 0.039970
C15   C     C_1   0.232804 0.636880 0.612908 0.008906
C16   C     C_R   0.600698 0.278829 0.565780 0.547628
C17   C     C_R   0.143424 0.595627 0.725858 -0.043433
C18   C     C_R   0.134817 0.597767 0.774820 -0.052719
C19   C     C_R   0.215086 0.722946 0.779715 0.124666
C20   C     C_R   0.224253 0.719897 0.730673 -0.059469
C21   C     C_R   0.187439 0.657357 0.703683 0.058965
C22   C     C_R   0.169648 0.661755 0.801915 0.072135
C23   C     C_3   0.770769 0.608722 0.763179 -0.008261
C24   C     C_1   0.143772 0.675806 0.851330 0.031260
C25   C     C_1   0.206549 0.647619 0.653795 -0.022394
C26   C     C_1   0.111346 0.695227 0.891455 0.055981
C27   C     C_1   0.634953 0.631996 0.387902 0.061178
C28   C     C_R   0.275850 0.621472 0.434809 0.557267
C29   C     C_R   0.754286 0.627739 0.276015 0.018199
C30   C     C_R   0.762468 0.627551 0.226556 0.135550
C31   C     C_R   0.557537 0.703488 0.219694 0.068493
C32   C     C_R   0.548381 0.702573 0.269081 0.045144
C33   C     C_R   0.647112 0.665964 0.297122 -0.004963
C34   C     C_3   0.669228 0.676333 0.796354 0.048979
C35   C     C_R   0.663840 0.667640 0.198846 0.037743
C36   C     C_1   0.672210 0.682580 0.149187 0.060454
C37   C     C_1   0.641611 0.651237 0.347169 0.030226
C38   C     C_1   0.689420 0.697622 0.109088 0.070178
C39   C     C_1   0.638184 0.220505 0.390028 0.070474
C40   C     C_R   0.620124 0.600215 0.433982 0.552669
C41   C     C_R   0.649478 0.088721 0.280423 0.084586
C42   C     C_R   0.648502 0.081069 0.231241 0.108935
C43   C     C_R   0.717595 0.216730 0.224714 0.105864
C44   C     C_R   0.718292 0.224608 0.273947 0.109187
C45   C     C_3   0.703688 0.559971 0.737787 -0.027215
C46   C     C_R   0.682760 0.161678 0.301400 0.001777
C47   C     C_R   0.681964 0.145584 0.203734 0.003742
C48   C     C_1   0.687957 0.130283 0.153853 0.058100
C49   C     C_1   0.663148 0.186719 0.350476 0.057788
C50   C     C_1   0.697195 0.104764 0.113090 0.076346
C51   C     C_1   0.221445 0.640362 0.390688 0.082065
C52   C     C_R   0.600807 0.276612 0.434019 0.557960
C53   C     C_R   0.064642 0.745815 0.283004 -0.016170
C54   C     C_R   0.050106 0.753722 0.233730 -0.011958
C55   C     C_R   0.237064 0.582660 0.223503 0.118810
C56   C     C_3   0.655441 0.661432 0.703817 0.011810
C57   C     C_R   0.252407 0.576205 0.272261 0.091366
C58   C     C_R   0.166835 0.657342 0.301646 0.024183
C59   C     C_R   0.137106 0.671404 0.204522 0.032681
C60   C     C_1   0.123787 0.679423 0.154648 0.077222
C61   C     C_1   0.189771 0.650557 0.350885 0.078585
C62   C     C_1   0.100732 0.694701 0.113837 0.088521
C63   C     C_R   0.720566 0.055658 0.935433 0.551162
C64   C     C_3   0.723053 0.710036 0.728814 0.089227
C65   C     C_R   0.730487 0.717354 0.932486 0.548863
C66   C     C_R   0.058129 0.729008 0.936578 0.552423
C67   C     C_3   0.602489 0.627632 0.771105 -0.019118
C68   C     C_R   0.714562 0.056189 0.067459 0.559515
C69   C     C_R   0.725006 0.716569 0.064432 0.559168
C70   C     C_R   0.054396 0.727312 0.068320 0.563342
C71   C     C_3   0.620847 0.777876 0.762230 0.113890
C72   C     C_1   0.697866 0.699935 0.887037 0.078129
C73   C     C_2   0.458224 0.353069 0.710749 0.278559
C74   C     C_2   0.856138 0.589166 0.306515 0.271948
C75   C     C_2   0.435480 0.738283 0.290642 0.292268
C76   C     C_2   0.971023 0.827885 0.314325 0.228516
C77   C     C_2   0.946463 0.852011 0.213320 0.233385
C78   C     C_3   0.552479 0.729329 0.736661 -0.136616
C79   C     C_2   0.536560 0.579071 0.793776 0.238463
C80   C     C_2   0.750068 0.436595 0.725910 0.225020
C81   C     C_2   0.893277 0.538739 0.776543 0.235200
C82   C     C_2   0.479354 0.312361 0.814769 0.302762
C83   C     C_1   0.680297 0.688003 0.846695 0.101607
Cr1   Cr    Cr6+3 0.413560 0.417690 0.499580 1.072629
Cr2   Cr    Cr6+3 0.418030 0.668340 0.500400 1.087803
Cr3   Cr    Cr6+3 0.668390 0.413960 0.499990 1.088732
Cr4   Cr    Cr6+3 0.919710 0.916540 0.003080 1.097707
Cr5   Cr    Cr6+3 0.665300 0.919470 0.999630 1.096178
Cr6   Cr    Cr6+3 0.916060 0.665490 0.000390 1.099195
H1    H     H_    0.116980 0.545054 0.705403 0.128775
H2    H     H_    0.907203 0.933954 0.230990 0.104470
H3    H     H_    0.487666 0.553127 0.772118 0.165298
H4    H     H_    0.781429 0.374052 0.753794 0.130387
H5    H     H_    0.956825 0.497350 0.749317 0.120710
H6    H     H_    0.494897 0.334932 0.849586 0.117609
H7    H     H_    0.099548 0.550729 0.791616 0.169038
H8    H     H_    0.260434 0.766028 0.713646 0.123052
H9    H     H_    0.462430 0.779153 0.725440 0.145779
H10   H     H_    0.828671 0.053730 0.698986 0.165057
H11   H     H_    0.430125 0.339990 0.676699 0.112570
H12   H     H_    0.848732 0.631388 0.339944 0.107250
H13   H     H_    0.372520 0.726559 0.271737 0.139389
H14   H     H_    0.883478 0.866475 0.302747 0.116396
I1    I     I_    0.552281 0.952368 0.782113 -0.265552
I2    I     I_    0.365459 0.460266 0.177674 -0.240488
I3    I     I_    0.406732 0.444521 0.302160 -0.292104
I4    I     I_    0.929046 0.964131 0.795849 -0.314084
I5    I     I_    0.266091 0.825124 0.818109 -0.259964
I6    I     I_    0.922530 0.571813 0.192227 -0.173473
I7    I     I_    0.410524 0.764087 0.175588 -0.294015
I8    I     I_    0.599202 0.992355 0.323722 -0.269487
I9    I     I_    0.819707 0.775234 0.695093 -0.364613
I10   I     I_    0.594307 0.973938 0.197852 -0.226344
I11   I     I_    0.766851 0.313759 0.181407 -0.229453
I12   I     I_    0.769554 0.333934 0.307534 -0.232965
O1    O     O_R   0.503010 0.303330 0.550820 -0.509714
O2    O     O_R   0.827060 0.642880 0.947470 -0.483613
O3    O     O_R   0.013800 0.673690 0.954100 -0.492165
O4    O     O_R   0.320040 0.522690 0.547470 -0.497003
O5    O     O_R   0.031250 0.825430 0.055080 -0.489961
O6    O     O_R   0.814180 0.011990 0.050320 -0.487021
O7    O     O_R   0.640680 0.032900 0.051920 -0.487799
O8    O     O_R   0.671090 0.815590 0.046300 -0.482989
O9    O     O_R   0.822940 0.642440 0.050310 -0.488541
O10   O     O_R   0.009970 0.673280 0.049430 -0.487060
O11   O     O_3   0.833690 0.833830 0.001040 -0.278229
O12   O     O_R   0.522480 0.657560 0.452870 -0.474160
O13   O     O_R   0.303930 0.694040 0.551750 -0.500957
O14   O     O_R   0.523510 0.657900 0.548240 -0.504235
O15   O     O_R   0.694770 0.503160 0.551780 -0.482331
O16   O     O_R   0.657990 0.319990 0.547370 -0.481356
O17   O     O_R   0.501900 0.302960 0.447930 -0.485371
O18   O     O_R   0.319020 0.522350 0.452090 -0.492637
O19   O     O_R   0.302820 0.693680 0.448870 -0.475533
O20   O     O_2   0.404625 0.445812 0.729642 -0.518296
O21   O     O_2   0.947313 0.507139 0.296036 -0.420508
O22   O     O_2   0.410371 0.783102 0.329430 -0.458942
O23   O     O_R   0.693670 0.502790 0.448900 -0.496225
O24   O     O_2   0.990047 0.854780 0.352903 -0.476585
O25   O     O_2   0.902510 0.842433 0.177367 -0.490419
O26   O     O_2   0.537474 0.568456 0.836364 -0.482180
O27   O     O_2   0.752349 0.405974 0.685311 -0.492156
O28   O     O_2   0.922099 0.527354 0.817717 -0.492946
O29   O     O_2   0.382611 0.336705 0.804219 -0.445453
O30   O     O_R   0.656970 0.319650 0.452000 -0.488892
O31   O     O_3   0.499990 0.499990 0.499990 -0.275225
O32   O     O_R   0.035380 0.825870 0.952240 -0.485607
O33   O     O_R   0.818010 0.012400 0.954990 -0.487494
O34   O     O_R   0.644810 0.033340 0.949080 -0.494713
O35   O     O_R   0.674910 0.816000 0.950960 -0.493793

loop_
_geom_bond_atom_site_label_1
_geom_bond_atom_site_label_2
_ccdc_geom_bond_type
C73   H11   S    
C71   I1    S    
C52   O30   A    
C23   C45   S    
C55   C59   A    
C7    C10   A    
C18   H7    S    
C41   C42   A    
C35   C36   S    
C51   C61   T    
C77   O25   D    
C2    C12   T    
C32   C75   S    
C7    C8    A    
Cr6   O10   S    
C53   C54   A    
C5    C9    A    
C46   C49   S    
Cr4   O32   S    
C30   C35   A    
C55   I2    S    
C28   O19   A    
C24   C26   T    
C43   I11   S    
C1    O4    A    
C5    C6    A    
C11   C14   T    
Cr3   O16   S    
C15   C25   T    
C69   O8    A    
Cr3   O31   S    
C56   C78   S    
C62   C70   S    
C60   C62   T    
Cr5   O34   S    
C64   C71   S    
C65   O35   A    
C16   O16   A    
C9    C13   S    
C63   O34   A    
Cr5   O11   S    
C29   C33   A    
Cr2   O14   S    
C20   H8    S    
C73   O20   D    
C45   C56   S    
C70   O5    A    
C8    C9    A    
C74   O21   D    
C78   H9    S    
C75   H13   S    
C41   C46   A    
C1    O13   A    
C1    C15   S    
C4    C12   S    
C3    C13   T    
Cr2   O19   S    
C54   C59   A    
C54   C77   S    
C19   I5    S    
C58   C61   S    
C48   C50   T    
C57   I3    S    
C38   C69   S    
C59   C60   S    
Cr1   O1    S    
C67   C78   S    
Cr5   O8    S    
C16   O1    A    
C44   C46   A    
Cr6   O11   S    
Cr1   O18   S    
Cr4   O33   S    
C30   I6    S    
C28   O18   A    
C52   O17   A    
C5    H10   S    
C19   C22   A    
C67   C79   S    
Cr2   O31   S    
C44   I12   S    
C82   O29   D    
C75   O22   D    
C68   O7    A    
Cr4   O6    S    
Cr3   O15   S    
C4    O15   A    
C29   C74   S    
C69   O9    A    
C40   O12   A    
Cr1   O17   S    
C33   C37   S    
C40   O23   A    
C26   C66   S    
C34   C67   S    
C43   C44   A    
C45   C67   S    
C29   C30   A    
C42   I10   S    
C47   C48   S    
C27   C40   S    
C6    I4    S    
C23   C34   S    
C56   C64   S    
C17   C18   A    
C66   O32   A    
Cr6   O3    S    
C79   H3    S    
C74   H12   S    
C70   O10   A    
Cr5   O7    S    
C23   C64   S    
C39   C49   T    
Cr6   O2    S    
C80   O27   D    
C55   C57   A    
C41   I8    S    
C31   C35   A    
Cr2   O12   S    
C53   C76   S    
C34   C83   S    
Cr3   O30   S    
C63   O33   A    
C76   O24   D    
C21   C25   S    
C77   H2    S    
C82   H6    S    
C23   C81   S    
C18   C22   A    
Cr5   O35   S    
C31   C32   A    
C17   H1    S    
C68   O6    A    
C6    C10   A    
C53   C58   A    
C4    O14   A    
Cr6   O9    S    
Cr1   O31   S    
C65   C72   S    
C32   C33   A    
C19   C20   A    
C36   C38   T    
Cr4   O5    S    
C2    C56   S    
C81   H5    S    
C57   C58   A    
C79   O26   D    
C43   C47   A    
C76   H14   S    
Cr1   O4    S    
C14   C63   S    
C8    C73   S    
C28   C51   S    
C31   I7    S    
C39   C52   S    
C45   C80   S    
C22   C24   S    
C42   C47   A    
C71   C78   S    
C17   C21   A    
C72   C83   T    
C64   I9    S    
C10   C11   S    
Cr3   O23   S    
C81   O28   D    
C7    C82   S    
C20   C21   A    
C66   O3    A    
C65   O2    A    
Cr2   O13   S    
C80   H4    S    
C50   C68   S    
C34   C71   S    
Cr4   O11   S    
C3    C16   S    
C27   C37   T    
