data_mof_unit_pretest_1477.cif
_audit_creation_date              2012-12-11T20:55:36-0500
_audit_creation_method            fapswitch 2.2
_symmetry_space_group_name_H-M    P1
_symmetry_Int_Tables_number       1
_space_group_crystal_system       triclinic
_cell_length_a                    8.266907
_cell_length_b                    19.108496
_cell_length_c                    22.732568
_cell_angle_alpha                 99.49786
_cell_angle_beta                  89.349681
_cell_angle_gamma                 92.30716
_cell_volume                      3538.88390527

loop_
_atom_site_label
_atom_site_type_symbol
_atom_type_description
_atom_site_fract_x
_atom_site_fract_y
_atom_site_fract_z
_atom_type_partial_charge
Ba1   Ba    Ba6+2 0.157290 0.533910 0.474710 1.658611
Ba2   Ba    Ba6+2 0.652900 0.466090 0.525240 1.666195
C1    C     C_3   0.376044 0.750431 0.272562 -0.343253
C2    C     C_R   0.988781 0.272111 0.477354 0.069363
C3    C     C_R   0.146121 0.180799 0.538571 -0.156734
C4    C     C_3   0.925627 0.721375 0.348501 0.396994
C5    C     C_R   0.207089 0.250741 0.539628 -0.000749
C6    C     C_R   0.655602 0.818399 0.459586 -0.157399
C7    C     C_R   0.599592 0.748947 0.461506 -0.006672
C8    C     C_R   0.887034 0.799642 0.517007 -0.141975
C9    C     C_R   0.832492 0.727792 0.516509 0.067537
C10   C     C_R   0.023781 0.150860 0.497415 0.006986
C11   C     C_R   0.119253 0.297362 0.513358 -0.205384
C12   C     C_3   0.435980 0.730162 0.330184 0.317601
C13   C     C_R   0.809481 0.844844 0.481680 -0.008176
C14   C     C_R   0.692351 0.702943 0.486218 -0.256683
C15   C     C_R   0.258862 0.035074 0.498510 -0.087008
C16   C     C_3   0.940977 0.792271 0.326579 -0.368325
C17   C     C_R   0.365929 0.985950 0.512115 -0.093697
C18   C     C_R   0.315266 0.915703 0.507726 -0.052425
C19   C     C_R   0.160655 0.894823 0.487226 -0.068851
C20   C     C_R   0.040868 0.944088 0.486166 0.009202
C21   C     C_R   0.090990 0.017885 0.491876 0.042228
C22   C     C_R   0.878696 0.919823 0.472022 -0.023801
C23   C     C_3   0.485166 0.684187 0.616923 0.307380
C24   C     C_R   0.786061 0.970112 0.448337 0.037844
C25   C     C_R   0.817719 0.044369 0.467233 0.019263
C26   C     C_R   0.975342 0.070797 0.487725 -0.014863
C27   C     C_R   0.675188 0.950594 0.400977 -0.079020
C28   C     C_3   0.878009 0.378990 0.338201 0.367025
C29   C     C_R   0.569245 0.999464 0.385566 -0.056290
C30   C     C_R   0.571857 0.068058 0.417469 -0.063024
C31   C     C_R   0.691525 0.089468 0.460028 -0.117593
C32   C     C_R   0.649477 0.520040 0.333527 -0.266793
C33   C     C_R   0.361198 0.573089 0.950871 -0.028523
C34   C     C_3   0.496706 0.764572 0.634073 -0.377429
C35   C     C_R   0.307138 0.570815 0.891704 0.576503
C36   C     C_R   0.229532 0.447478 0.885376 0.563368
C37   C     C_R   0.286916 0.447307 0.943302 -0.014598
C38   C     C_R   0.352363 0.510569 0.976383 -0.054613
C39   C     C_R   0.424471 0.636151 0.985096 -0.080213
C40   C     C_3   0.960982 0.364864 0.277163 -0.022199
C41   C     C_R   0.476822 0.637150 0.043541 -0.078763
C42   C     C_R   0.469591 0.574893 0.069284 -0.020564
C43   C     C_R   0.408392 0.511235 0.035312 -0.054459
C44   C     C_R   0.280508 0.384901 0.968724 -0.081420
C45   C     C_3   0.020903 0.308812 0.683219 0.504290
C46   C     C_R   0.338893 0.385180 0.026008 -0.086458
C47   C     C_R   0.402792 0.448144 0.060001 -0.020063
C48   C     C_R   0.460782 0.449343 0.118181 0.576411
C49   C     C_R   0.520386 0.574936 0.128401 0.586140
C50   C     C_2   0.043199 0.491863 0.776816 0.049202
C51   C     C_3   0.010187 0.487009 0.709818 -0.075429
C52   C     C_3   0.996158 0.635879 0.661422 0.303312
C53   C     C_1   0.296668 0.514964 0.696191 0.018589
C54   C     C_2   0.331580 0.516275 0.753005 -0.113633
C55   C     C_2   0.199492 0.505030 0.796976 0.237107
C56   C     C_3   0.010552 0.227702 0.672498 -0.363211
C57   C     C_R   0.714774 0.543926 0.234704 -0.100644
C58   C     C_R   0.756771 0.547316 0.294648 -0.042331
C59   C     C_R   0.505233 0.484725 0.312765 -0.009123
C60   C     C_R   0.459345 0.483333 0.253471 -0.090540
C61   C     C_R   0.563254 0.513566 0.213814 0.230414
C62   C     C_2   0.164108 0.481691 0.673056 -0.273916
C63   C     C_3   0.037312 0.668211 0.725526 -0.365858
C64   C     C_3   0.459181 0.305022 0.336138 0.439474
C65   C     C_3   0.479949 0.299301 0.268339 -0.331477
C66   C     C_3   0.917636 0.304582 0.175059 -0.235098
C67   C     C_3   0.562566 0.187565 0.611836 0.359383
C68   C     C_3   0.270771 0.200383 0.334689 -0.211860
C69   C     C_3   0.292104 0.334867 0.727851 -0.209589
C70   C     C_3   0.461956 0.125997 0.699105 -0.206622
C71   C     C_3   0.397156 0.055714 0.663771 -0.418343
C72   C     C_3   0.900217 0.491695 0.819314 -0.178377
C73   C     C_3   0.800020 0.557119 0.819535 -0.440589
C74   C     C_3   0.606158 0.158958 0.668597 -0.203974
C75   C     C_R   0.955556 0.198570 0.463510 -0.158454
H1    H     H_    0.460014 0.672390 0.321967 0.025420
H2    H     H_    0.266141 0.717805 0.256770 0.162146
H3    H     H_    0.360492 0.294089 0.245874 0.108828
H4    H     H_    0.551394 0.252444 0.250438 0.113454
H5    H     H_    0.545883 0.346937 0.257176 0.095118
H6    H     H_    0.550190 0.761623 0.342150 -0.029644
H7    H     H_    0.471541 0.741170 0.237775 0.128563
H8    H     H_    0.607402 0.665151 0.604025 0.014807
H9    H     H_    0.402420 0.670808 0.578239 0.076425
H10   H     H_    0.581373 0.779971 0.672003 0.128716
H11   H     H_    0.542069 0.788870 0.595630 0.058419
H12   H     H_    0.965545 0.415019 0.258348 0.062727
H13   H     H_    0.375327 0.785009 0.647127 0.124525
H14   H     H_    0.348144 0.807585 0.279714 0.094601
H15   H     H_    0.899213 0.834812 0.361507 0.065310
H16   H     H_    0.076637 0.326062 0.642891 -0.041656
H17   H     H_    0.934931 0.207983 0.632876 0.089777
H18   H     H_    0.132808 0.206323 0.664725 0.073671
H19   H     H_    0.956115 0.207679 0.711705 0.103796
H20   H     H_    0.677749 0.196203 0.587963 0.031334
H21   H     H_    0.485904 0.147505 0.582576 -0.010691
H22   H     H_    0.660786 0.203335 0.700946 0.133366
H23   H     H_    0.086852 0.348595 0.282184 0.101060
H24   H     H_    0.699898 0.118630 0.657593 0.059010
H25   H     H_    0.989423 0.726345 0.391875 0.072079
H26   H     H_    0.877025 0.180016 0.426117 0.074243
H27   H     H_    0.200571 0.149472 0.567783 0.056824
H28   H     H_    0.570977 0.850584 0.442700 0.071260
H29   H     H_    0.988092 0.819087 0.545522 0.084993
H30   H     H_    0.159445 0.352548 0.517509 0.071899
H31   H     H_    0.647091 0.649100 0.486683 0.062756
H32   H     H_    0.311799 0.085513 0.492217 0.070514
H33   H     H_    0.490528 0.001676 0.523039 0.077994
H34   H     H_    0.108431 0.616464 0.638398 0.018382
H35   H     H_    0.398439 0.877119 0.517004 0.088382
H36   H     H_    0.795080 0.708053 0.354639 -0.097229
H37   H     H_    0.135498 0.840410 0.468823 0.128613
H38   H     H_    0.673196 0.898582 0.373860 0.059065
H39   H     H_    0.482026 0.983461 0.350270 0.067210
H40   H     H_    0.483215 0.105007 0.408579 0.077192
H41   H     H_    0.688884 0.142193 0.484969 0.107126
H42   H     H_    0.332399 0.335922 0.043807 0.116186
H43   H     H_    0.231265 0.335337 0.944189 0.117733
H44   H     H_    0.523568 0.686935 0.068488 0.117829
H45   H     H_    0.905745 0.591388 0.661010 0.026726
H46   H     H_    0.798860 0.565042 0.204604 0.105146
H47   H     H_    0.432937 0.685116 0.966900 0.121235
H48   H     H_    0.069086 0.805053 0.316427 0.140996
H49   H     H_    0.456027 0.524605 0.767918 0.089103
H50   H     H_    0.344072 0.458410 0.238184 0.102312
H51   H     H_    0.683177 0.522619 0.379714 0.074984
H52   H     H_    0.163521 0.453936 0.627321 0.062080
H53   H     H_    0.867032 0.790585 0.285850 0.114257
H54   H     H_    0.753800 0.393995 0.331404 -0.118049
H55   H     H_    0.938831 0.425509 0.365154 0.070342
H56   H     H_    0.121123 0.715232 0.726088 0.145735
H57   H     H_    0.867885 0.261228 0.251497 0.219740
H58   H     H_    0.840173 0.262818 0.147923 0.122413
H59   H     H_    0.046453 0.290410 0.168546 0.106708
H60   H     H_    0.898977 0.355742 0.159374 0.134256
H61   H     H_    0.455126 0.232450 0.395365 0.210573
H62   H     H_    0.265031 0.146516 0.347078 0.086206
H63   H     H_    0.253126 0.194450 0.285791 0.108574
H64   H     H_    0.171312 0.231135 0.358261 0.126888
H65   H     H_    0.078574 0.313346 0.772489 0.248975
H66   H     H_    0.335841 0.280564 0.724375 0.122421
H67   H     H_    0.097224 0.629509 0.748295 0.084967
H68   H     H_    0.351250 0.367583 0.767065 0.151808
H69   H     H_    0.328557 0.358139 0.687907 0.122413
H70   H     H_    0.327716 0.065405 0.624756 0.130977
H71   H     H_    0.497397 0.019872 0.648798 0.133725
H72   H     H_    0.313507 0.028973 0.692372 0.129308
H73   H     H_    0.502830 0.115950 0.743269 0.117671
H74   H     H_    0.362265 0.163303 0.707221 0.124396
H75   H     H_    0.874304 0.605985 0.836090 0.147012
H76   H     H_    0.755983 0.559952 0.774070 0.138975
H77   H     H_    0.693674 0.554665 0.849532 0.135478
H78   H     H_    0.925184 0.684947 0.750386 0.115913
H79   H     H_    0.823026 0.442910 0.805955 0.133124
H80   H     H_    0.938133 0.491486 0.865858 0.129336
H81   H     H_    0.571955 0.325838 0.358628 0.058861
N1    N     N_R   0.242632 0.508230 0.859452 -0.430723
N2    N     N_R   0.515308 0.512573 0.152369 -0.425127
N3    N     N_2   0.872873 0.309809 0.237239 -0.431605
N4    N     N_2   0.426635 0.234909 0.351746 -0.430285
N5    N     N_2   0.118098 0.334154 0.735613 -0.438091
O1    O     O_2   0.108070 0.674980 0.540650 -0.455423
O2    O     O_2   0.678711 0.439215 0.695360 -0.472482
O3    O     O_3   0.862933 0.333252 0.693230 -0.581185
O4    O     O_3   0.861930 0.586170 0.535430 -0.486799
O5    O     O_3   0.451480 0.461630 0.428900 -0.462609
O6    O     O_2   0.599240 0.538720 0.642170 -0.465063
O7    O     O_3   0.426172 0.654304 0.665757 -0.636395
O8    O     O_2   0.527634 0.246327 0.509889 -0.527301
O9    O     O_3   0.486564 0.252909 0.626546 -0.611341
O10   O     O_2   0.316687 0.624538 0.869011 -0.594712
O11   O     O_2   0.166736 0.393267 0.858056 -0.626098
O12   O     O_3   0.331802 0.348771 0.357242 -0.621864
O13   O     O_2   0.463959 0.393903 0.138314 -0.614630
O14   O     O_2   0.567207 0.630700 0.158786 -0.617275
O15   O     O_3   0.366390 0.628250 0.433820 -0.459734
O16   O     O_2   0.282166 0.750868 0.491047 -0.506466
O17   O     O_3   0.929022 0.688338 0.634562 -0.636858
O18   O     O_3   0.319285 0.746028 0.375460 -0.591708
O19   O     O_2   0.211060 0.461230 0.357810 -0.462624
O20   O     O_3   0.958150 0.591500 0.402390 -0.489386
O21   O     O_2   0.093190 0.541750 0.296872 -0.488216
O22   O     O_3   0.997255 0.669998 0.306185 -0.584423
O23   O     O_2   0.702240 0.324970 0.459330 -0.453357
O24   O     O_3   0.948380 0.413820 0.464520 -0.490602
O25   O     O_3   0.443920 0.371740 0.566130 -0.438080
O26   O     O_3   0.876019 0.317067 0.364395 -0.658895
O27   O     O_3   0.358830 0.538360 0.571050 -0.479638
O28   O     O_3   0.852160 0.408490 0.597560 -0.464965
P1    P     P_3+3 0.933470 0.664380 0.557030 0.982410
P2    P     P_3+3 0.383600 0.440030 0.365120 0.983215
P3    P     P_3+3 0.951455 0.586329 0.324680 0.958367
P4    P     P_3+3 0.876840 0.335610 0.442930 0.988247
P5    P     P_3+3 0.852637 0.418832 0.675489 1.004389
P6    P     P_3+3 0.393322 0.719492 0.439733 0.933193
P7    P     P_3+3 0.417911 0.561716 0.645782 0.955012
P8    P     P_3+3 0.416320 0.279222 0.561179 0.948070

loop_
_geom_bond_atom_site_label_1
_geom_bond_atom_site_label_2
_ccdc_geom_bond_type
C23   O7    S    
C2    P4    S    
C53   C54   D    
C68   H63   S    
C59   P2    S    
C17   C18   A    
C64   H81   S    
O22   P3    S    
C11   H30   S    
C1    H2    S    
C6    H28   S    
Ba1   O20   S    
C40   N3    S    
C58   P3    S    
C52   C63   S    
C66   N3    S    
C25   C31   A    
C74   H22   S    
O4    P1    S    
C4    O22   S    
C8    C9    A    
C24   C25   A    
C15   C21   A    
C69   N5    S    
C71   H70   S    
C61   N2    S    
C39   H47   S    
C1    H14   S    
C33   C35   A    
C7    C14   A    
O3    P5    S    
C36   N1    Am   
C9    P1    S    
C50   C72   S    
C8    C13   A    
C16   H48   S    
C36   C37   A    
C51   C62   S    
O21   P3    D    
C36   O11   D    
C53   P7    S    
Ba1   O4    S    
C28   H54   S    
C49   N2    Am   
O20   P3    S    
C54   C55   S    
C64   N4    S    
C67   C74   S    
C48   O13   D    
Ba2   P4    S    
Ba1   O15   S    
C28   O26   S    
C2    C11   A    
C56   H19   S    
Ba2   O24   S    
O8    P8    D    
C18   H35   S    
Ba1   O1    S    
C6    C7    A    
C54   H49   S    
C41   H44   S    
C70   C74   S    
C45   N5    S    
C67   H21   S    
C4    H25   S    
C64   C65   S    
C52   H45   S    
C3    H27   S    
O18   P6    S    
C57   C58   A    
C19   C20   A    
C55   N1    S    
C32   C58   A    
C39   C41   A    
C66   H60   S    
C12   H6    S    
C68   N4    S    
C7    P6    S    
C46   H42   S    
Ba1   O24   S    
C34   H10   S    
C57   H46   S    
C38   C43   A    
C4    C16   S    
C44   C46   A    
C72   C73   S    
C65   H3    S    
C71   H71   S    
C44   H43   S    
C75   H26   S    
Ba2   O27   S    
O23   P4    D    
C66   H59   S    
Ba2   O28   S    
C3    C10   A    
O17   P1    S    
C37   C38   A    
C3    C5    A    
C45   O3    S    
C70   C71   S    
O16   P6    D    
O25   P8    S    
C48   N2    Am   
C32   C59   A    
C34   H11   S    
C27   H38   S    
C67   O9    S    
Ba1   P2    S    
C56   H18   S    
Ba2   O23   S    
C4    H36   S    
C60   C61   A    
C40   H23   S    
C9    C14   A    
O26   P4    S    
C29   C30   A    
C43   C47   A    
C73   H75   S    
C70   H74   S    
C10   C75   A    
C23   H8    S    
C45   H16   S    
C72   H79   S    
H61   N4    S    
O19   P2    D    
C21   C26   A    
C62   H52   S    
C1    C12   S    
C65   H5    S    
C37   C44   A    
C42   C49   A    
C32   H51   S    
C46   C47   A    
C69   H68   S    
O15   P6    S    
C10   C26   S    
C65   H4    S    
C6    C13   A    
C70   H73   S    
O5    P2    S    
C41   C42   A    
C20   C22   A    
C64   O12   S    
C16   H53   S    
C31   H41   S    
O2    P5    D    
Ba2   O5    S    
C29   H39   S    
O7    P7    S    
C12   O18   S    
C50   C51   S    
O27   P7    S    
C69   H66   S    
C17   H33   S    
C34   H13   S    
C74   H24   S    
C63   H67   S    
C30   H40   S    
C13   C22   S    
C68   H64   S    
C72   H80   S    
C71   H72   S    
C23   C34   S    
C66   H58   S    
C28   C40   S    
C42   C43   A    
O28   P5    S    
C22   C24   A    
C19   H37   S    
C15   H32   S    
Ba1   O19   S    
C53   C62   D    
C57   C61   A    
Ba1   O5    S    
H57   N3    S    
C40   H12   S    
C16   H15   S    
C30   C31   A    
C35   N1    Am   
C33   C38   A    
C56   H17   S    
C2    C75   A    
C63   H78   S    
C49   O14   D    
Ba1   O27   S    
C45   C56   S    
C73   H77   S    
C60   H50   S    
C28   H55   S    
Ba1   Ba2   S    
C23   H9    S    
C15   C17   A    
C52   O17   S    
C52   H34   S    
C12   H1    S    
C5    P8    S    
C59   C60   A    
C33   C39   A    
Ba2   O25   S    
O9    P8    S    
C8    H29   S    
C50   C55   D    
C14   H31   S    
Ba2   O6    S    
C35   O10   D    
Ba1   P1    S    
C5    C11   A    
C69   H69   S    
C18   C19   A    
C24   C27   A    
C27   C29   A    
C47   C48   A    
H65   N5    S    
C1    H7    S    
C73   H76   S    
C51   P5    S    
C20   C21   A    
O24   P4    S    
O1    P1    D    
Ba2   O4    S    
O12   P2    S    
C63   H56   S    
C67   H20   S    
O6    P7    D    
C25   C26   A    
C68   H62   S    
