data_mof_unit_pretest_1924.cif
_audit_creation_date              2012-12-10T18:13:25-0500
_audit_creation_method            fapswitch 2.2
_symmetry_space_group_name_H-M    P1
_symmetry_Int_Tables_number       1
_space_group_crystal_system       triclinic
_cell_length_a                    18.347538
_cell_length_b                    18.343192
_cell_length_c                    25.945293
_cell_angle_alpha                 89.999442
_cell_angle_beta                  90.017361
_cell_angle_gamma                 89.997264
_cell_volume                      8731.95053475

loop_
_atom_site_label
_atom_site_type_symbol
_atom_type_description
_atom_site_fract_x
_atom_site_fract_y
_atom_site_fract_z
_atom_type_partial_charge
C1    C     C_R   0.859839 0.140143 0.249948 0.513824
C2    C     C_R   0.809484 0.256025 0.283398 -0.131139
C3    C     C_R   0.243732 0.309722 0.283170 -0.131729
C4    C     C_R   0.190276 0.256266 0.716837 -0.133483
C5    C     C_R   0.190295 0.256277 0.283156 -0.133077
C6    C     C_R   0.309457 0.756029 0.216599 -0.131026
C7    C     C_R   0.309481 0.756020 0.783403 -0.130937
C8    C     C_R   0.690276 0.756265 0.216837 -0.133656
C9    C     C_R   0.690296 0.756276 0.783156 -0.133560
C10   C     C_R   0.803713 0.196271 0.750033 0.040550
C11   C     C_R   0.803701 0.196263 0.249968 0.041092
C12   C     C_R   0.196301 0.196261 0.750028 0.040491
C13   C     C_R   0.859848 0.140146 0.750051 0.508182
C14   C     C_R   0.196298 0.196262 0.249977 0.040794
C15   C     C_R   0.303710 0.696269 0.250030 0.040740
C16   C     C_R   0.303705 0.696266 0.749966 0.040725
C17   C     C_R   0.696300 0.696262 0.250029 0.040673
C18   C     C_R   0.696295 0.696265 0.749974 0.040681
C19   C     C_R   0.743948 0.190502 0.783431 -0.128312
C20   C     C_R   0.743909 0.190497 0.216572 -0.127396
C21   C     C_R   0.256332 0.190257 0.783190 -0.131660
C22   C     C_R   0.256314 0.190245 0.216826 -0.130747
C23   C     C_R   0.243948 0.690502 0.283430 -0.126768
C24   C     C_R   0.140159 0.140140 0.249956 0.510652
C25   C     C_R   0.243919 0.690507 0.716564 -0.126806
C26   C     C_R   0.756329 0.690260 0.283193 -0.131710
C27   C     C_R   0.756305 0.690253 0.716817 -0.131609
C28   C     C_R   0.190496 0.743939 0.283404 -0.130050
C29   C     C_R   0.190472 0.743948 0.716594 -0.130156
C30   C     C_R   0.809766 0.743707 0.283172 -0.132333
C31   C     C_R   0.809746 0.743697 0.716835 -0.132525
C32   C     C_R   0.690496 0.243938 0.783404 -0.131429
C33   C     C_R   0.690464 0.243939 0.216601 -0.131886
C34   C     C_R   0.309769 0.243705 0.783169 -0.132474
C35   C     C_R   0.140164 0.140141 0.750048 0.507596
C36   C     C_R   0.309754 0.243690 0.216842 -0.132248
C37   C     C_R   0.196251 0.803709 0.249982 0.040886
C38   C     C_R   0.196257 0.803712 0.750021 0.040528
C39   C     C_R   0.803734 0.803720 0.249988 0.041153
C40   C     C_R   0.803739 0.803717 0.750008 0.040611
C41   C     C_R   0.696254 0.303711 0.749985 0.040756
C42   C     C_R   0.696256 0.303711 0.250021 0.040824
C43   C     C_R   0.303735 0.303719 0.749987 0.040618
C44   C     C_R   0.303742 0.303715 0.250011 0.040641
C45   C     C_R   0.040802 0.945467 0.026648 0.232391
C46   C     C_R   0.359841 0.640145 0.749946 0.508748
C47   C     C_R   0.040559 0.945848 0.973004 0.252150
C48   C     C_R   0.957552 0.050186 0.027582 0.245930
C49   C     C_R   0.959218 0.052577 0.973435 0.190291
C50   C     C_R   0.536296 0.443624 0.526852 0.252796
C51   C     C_R   0.536319 0.443632 0.473169 0.252773
C52   C     C_R   0.463682 0.556308 0.526831 0.252890
C53   C     C_R   0.463706 0.556316 0.473148 0.252918
C54   C     C_R   0.000128 0.999595 0.946155 -0.047489
C55   C     C_R   0.999450 0.997897 0.053858 -0.020183
C56   C     C_R   0.500022 0.499977 0.446068 -0.068933
C57   C     C_R   0.359847 0.640146 0.250051 0.508733
C58   C     C_R   0.499978 0.499962 0.553932 -0.068942
C59   C     C_R   0.140134 0.859855 0.249974 0.506805
C60   C     C_R   0.140141 0.859856 0.750029 0.508340
C61   C     C_R   0.859853 0.859861 0.249977 0.504903
C62   C     C_R   0.859859 0.859860 0.750020 0.507477
C63   C     C_R   0.640135 0.359856 0.749975 0.508325
C64   C     C_R   0.640141 0.359857 0.250029 0.508422
C65   C     C_R   0.359853 0.359861 0.749977 0.507939
C66   C     C_R   0.359860 0.359860 0.250020 0.507953
C67   C     C_R   0.999934 0.999461 0.109981 0.540811
C68   C     C_R   0.640158 0.640142 0.749954 0.507742
C69   C     C_R   0.000036 0.999941 0.890011 0.480244
C70   C     C_R   0.499991 0.499972 0.610020 0.473064
C71   C     C_R   0.500009 0.499972 0.389980 0.473035
C72   C     C_R   0.000000 0.999952 0.389858 0.510332
C73   C     C_R   0.000001 0.999952 0.610142 0.510987
C74   C     C_R   0.500000 0.499952 0.889858 0.510297
C75   C     C_R   0.500001 0.499952 0.110142 0.510352
C76   C     C_R   0.999954 0.062965 0.474033 0.020288
C77   C     C_R   0.999955 0.062966 0.525965 0.020334
C78   C     C_R   0.499946 0.562965 0.974033 0.020127
C79   C     C_R   0.640164 0.640141 0.250049 0.507826
C80   C     C_R   0.499947 0.562966 0.025965 0.020131
C81   C     C_R   0.000009 0.999060 0.445470 0.033576
C82   C     C_R   0.000010 0.999060 0.554530 0.033422
C83   C     C_R   0.500012 0.499060 0.945470 0.033229
C84   C     C_R   0.500012 0.499060 0.054530 0.033246
C85   C     C_R   0.000074 0.932583 0.472942 -0.153563
C86   C     C_R   0.000074 0.932583 0.527059 -0.153664
C87   C     C_R   0.500089 0.432583 0.972942 -0.154941
C88   C     C_R   0.500089 0.432583 0.027059 -0.154928
C89   C     C_3   0.999857 0.143989 0.529687 -0.261072
C90   C     C_R   0.809463 0.256035 0.716606 -0.131334
C91   C     C_3   0.999856 0.143989 0.470311 -0.261182
C92   C     C_3   0.499830 0.643989 0.029687 -0.261272
C93   C     C_3   0.499829 0.643989 0.970311 -0.261255
C94   C     C_R   0.256007 0.809466 0.216574 -0.127273
C95   C     C_R   0.256037 0.809462 0.783431 -0.127050
C96   C     C_R   0.743709 0.809714 0.216818 -0.132701
C97   C     C_R   0.743734 0.809721 0.783171 -0.132282
C98   C     C_R   0.756014 0.309472 0.716582 -0.127340
C99   C     C_R   0.756042 0.309467 0.283425 -0.127085
C100  C     C_R   0.243709 0.309714 0.716819 -0.132037
H1    H     H_    0.000123 0.880773 0.452927 0.147591
H2    H     H_    0.448564 0.665336 0.953166 0.150336
H3    H     H_    0.551033 0.665480 0.046832 0.146217
H4    H     H_    0.551032 0.665479 0.953187 0.146251
H5    H     H_    0.261530 0.855154 0.190418 0.147924
H6    H     H_    0.261580 0.855146 0.809590 0.148182
H7    H     H_    0.737958 0.855603 0.190861 0.141908
H8    H     H_    0.737999 0.855616 0.809122 0.142524
H9    H     H_    0.761541 0.355164 0.690430 0.147378
H10   H     H_    0.761592 0.355158 0.309578 0.147384
H11   H     H_    0.237957 0.355605 0.690863 0.142816
H12   H     H_    0.000123 0.880773 0.547074 0.147489
H13   H     H_    0.237995 0.355621 0.309117 0.142906
H14   H     H_    0.855151 0.261569 0.690469 0.140099
H15   H     H_    0.855196 0.261554 0.309536 0.140029
H16   H     H_    0.144371 0.261991 0.690890 0.138679
H17   H     H_    0.144405 0.262013 0.309094 0.138675
H18   H     H_    0.355142 0.761559 0.190459 0.140307
H19   H     H_    0.355187 0.761545 0.809545 0.140346
H20   H     H_    0.644373 0.761990 0.190889 0.138499
H21   H     H_    0.644410 0.762008 0.809099 0.138558
H22   H     H_    0.738425 0.144808 0.809582 0.146990
H23   H     H_    0.500147 0.380773 0.952928 0.146645
H24   H     H_    0.738363 0.144805 0.190421 0.146805
H25   H     H_    0.262082 0.144364 0.809144 0.143547
H26   H     H_    0.262049 0.144343 0.190881 0.143756
H27   H     H_    0.238428 0.644811 0.309584 0.147885
H28   H     H_    0.238378 0.644820 0.690407 0.147784
H29   H     H_    0.762077 0.644368 0.309148 0.143262
H30   H     H_    0.762036 0.644355 0.690869 0.143253
H31   H     H_    0.144806 0.738405 0.309538 0.142264
H32   H     H_    0.144762 0.738420 0.690457 0.142129
H33   H     H_    0.855674 0.737980 0.309114 0.140738
H34   H     H_    0.500148 0.380773 0.047074 0.146622
H35   H     H_    0.855637 0.737961 0.690898 0.140573
H36   H     H_    0.644803 0.238401 0.809536 0.141228
H37   H     H_    0.644748 0.238407 0.190470 0.140880
H38   H     H_    0.355678 0.237976 0.809110 0.140528
H39   H     H_    0.355648 0.237950 0.190909 0.140503
H40   H     H_    0.061299 0.883203 0.086129 0.318421
H41   H     H_    0.058942 0.882907 0.913554 0.322941
H42   H     H_    0.889328 0.132239 0.033382 0.376860
H43   H     H_    0.943792 0.117598 0.914661 0.337367
H44   H     H_    0.553005 0.380971 0.586919 0.324075
H45   H     H_    0.948596 0.165348 0.546809 0.150199
H46   H     H_    0.553100 0.381009 0.413103 0.324069
H47   H     H_    0.446918 0.618942 0.586893 0.324286
H48   H     H_    0.447013 0.618980 0.413085 0.324248
H49   H     H_    0.948596 0.165348 0.453166 0.150055
H50   H     H_    0.051064 0.165468 0.546832 0.146915
H51   H     H_    0.051064 0.165467 0.453187 0.146833
H52   H     H_    0.448564 0.665336 0.046809 0.150328
O1    O     O_3   0.000000 0.000010 0.249960 -0.445953
O2    O     O_R   0.414520 0.646190 0.219700 -0.550112
O3    O     O_R   0.585480 0.646190 0.780300 -0.550319
O4    O     O_R   0.585480 0.646190 0.219700 -0.550321
O5    O     O_R   0.085460 0.853840 0.280340 -0.549309
O6    O     O_R   0.085460 0.853840 0.719660 -0.548812
O7    O     O_R   0.914540 0.853840 0.280340 -0.549639
O8    O     O_R   0.914540 0.853840 0.719660 -0.548933
O9    O     O_R   0.585460 0.353840 0.780340 -0.549059
O10   O     O_R   0.585460 0.353840 0.219660 -0.549094
O11   O     O_R   0.414540 0.353840 0.780340 -0.548810
O12   O     O_3   0.000000 0.000010 0.750040 -0.442048
O13   O     O_R   0.414540 0.353840 0.219660 -0.548839
O14   O     O_R   0.853820 0.914550 0.219610 -0.551463
O15   O     O_R   0.853820 0.914550 0.780390 -0.546061
O16   O     O_R   0.146180 0.914550 0.219610 -0.546759
O17   O     O_R   0.146180 0.914550 0.780390 -0.543841
O18   O     O_R   0.353820 0.414550 0.719610 -0.545628
O19   O     O_R   0.353820 0.414550 0.280390 -0.545578
O20   O     O_R   0.646180 0.414550 0.719610 -0.544165
O21   O     O_R   0.646180 0.414550 0.280390 -0.544162
O22   O     O_R   0.146170 0.085440 0.219600 -0.543019
O23   O     O_3   0.500000 0.500010 0.749960 -0.441483
O24   O     O_R   0.146170 0.085440 0.780400 -0.545032
O25   O     O_R   0.853830 0.085440 0.219600 -0.535906
O26   O     O_R   0.853830 0.085440 0.780400 -0.543441
O27   O     O_R   0.646170 0.585440 0.719600 -0.545338
O28   O     O_R   0.646170 0.585440 0.280400 -0.545304
O29   O     O_R   0.353830 0.585440 0.719600 -0.543806
O30   O     O_R   0.353830 0.585440 0.280400 -0.543727
O31   O     O_R   0.939270 0.999980 0.134160 -0.496422
O32   O     O_R   0.939270 0.999980 0.865840 -0.526918
O33   O     O_R   0.060730 0.999980 0.134160 -0.539121
O34   O     O_3   0.500000 0.500010 0.250040 -0.441498
O35   O     O_R   0.060730 0.999980 0.865840 -0.531825
O36   O     O_R   0.439270 0.499980 0.634160 -0.531422
O37   O     O_R   0.439270 0.499980 0.365840 -0.531301
O38   O     O_R   0.560730 0.499980 0.634160 -0.531101
O39   O     O_R   0.560730 0.499980 0.365840 -0.531265
O40   O     O_R   0.000000 0.060760 0.365760 -0.544436
O41   O     O_R   0.000000 0.060760 0.634240 -0.543295
O42   O     O_R   0.500000 0.560760 0.865760 -0.543531
O43   O     O_R   0.500000 0.560760 0.134240 -0.543528
O44   O     O_R   0.000000 0.939310 0.365770 -0.549708
O45   O     O_R   0.914520 0.146190 0.280300 -0.550512
O46   O     O_R   1.000000 0.939310 0.634230 -0.549531
O47   O     O_R   0.500000 0.439310 0.865770 -0.550151
O48   O     O_R   0.500000 0.439310 0.134230 -0.550123
O49   O     O_3   0.079901 0.890697 0.050762 -0.621626
O50   O     O_3   0.078949 0.890948 0.948482 -0.618097
O51   O     O_3   0.918372 0.100389 0.056304 -0.665473
O52   O     O_3   0.921700 0.107990 0.948759 -0.696744
O53   O     O_3   0.570637 0.385800 0.551089 -0.618880
O54   O     O_3   0.570678 0.385812 0.448955 -0.618952
O55   O     O_3   0.429327 0.614130 0.551045 -0.617997
O56   O     O_R   0.914520 0.146190 0.719700 -0.550350
O57   O     O_3   0.429368 0.614142 0.448912 -0.617966
O58   O     O_R   0.085480 0.146190 0.280300 -0.549713
O59   O     O_R   0.085480 0.146190 0.719700 -0.550404
O60   O     O_R   0.414520 0.646190 0.780300 -0.550064
Zn1   Zn    Zn3+2 0.000000 0.913260 0.293350 0.930568
Zn2   Zn    Zn3+2 0.413230 0.500000 0.293420 0.946826
Zn3   Zn    Zn3+2 0.586770 0.500000 0.706580 0.946538
Zn4   Zn    Zn3+2 0.586770 0.500000 0.293420 0.946567
Zn5   Zn    Zn3+2 0.000000 0.086780 0.293330 0.936566
Zn6   Zn    Zn3+2 0.000000 0.086780 0.706670 0.931483
Zn7   Zn    Zn3+2 0.500000 0.586780 0.793330 0.931523
Zn8   Zn    Zn3+2 0.500000 0.586780 0.206670 0.931538
Zn9   Zn    Zn3+2 0.000000 0.913260 0.706650 0.934270
Zn10  Zn    Zn3+2 0.500000 0.413260 0.793350 0.933681
Zn11  Zn    Zn3+2 0.500000 0.413260 0.206650 0.933684
Zn12  Zn    Zn3+2 0.913230 0.000000 0.206580 0.965463
Zn13  Zn    Zn3+2 0.913230 1.000000 0.793420 0.946390
Zn14  Zn    Zn3+2 0.086770 0.000000 0.206580 0.953465
Zn15  Zn    Zn3+2 0.086770 1.000000 0.793420 0.946930
Zn16  Zn    Zn3+2 0.413230 0.500000 0.706580 0.946745

loop_
_geom_bond_atom_site_label_1
_geom_bond_atom_site_label_2
_ccdc_geom_bond_type
C48   C55   A    
C83   C87   A    
O34   Zn11  S    
C74   O42   A    
C94   H5    S    
C80   C92   S    
O7    Zn1   S    
C73   O41   A    
C52   O55   S    
C44   C66   S    
C1    C11   S    
C74   C83   S    
H46   O54   S    
C68   O3    A    
C24   O22   A    
O1    Zn1   S    
C51   O54   S    
C19   H22   S    
C75   O48   A    
C100  H11   S    
C53   C56   A    
C89   H45   S    
C87   H23   S    
C48   O51   S    
C77   C89   S    
O58   Zn5   S    
C17   C26   A    
O32   Zn13  S    
C46   O29   A    
C74   O47   A    
C25   H28   S    
C60   O6    A    
C61   O14   A    
C76   C81   A    
O18   Zn16  S    
C61   O7    A    
O16   Zn14  S    
C78   C80   A    
C75   C84   S    
O15   Zn13  S    
C29   H32   S    
C19   C32   A    
C78   C93   S    
C18   C68   S    
C13   O26   A    
C53   O57   S    
C17   C79   S    
C40   C62   S    
C31   C40   A    
C51   C56   A    
C14   C24   S    
O24   Zn15  S    
C35   O59   A    
C57   O30   A    
O26   Zn13  S    
C77   C82   A    
C92   H3    S    
C6    C15   A    
O19   Zn2   S    
C1    O25   A    
O12   Zn9   S    
C33   H37   S    
O31   Zn12  S    
C6    C94   A    
C8    C96   A    
C29   C38   A    
C92   H52   S    
C9    H21   S    
C32   C41   A    
O17   Zn15  S    
O3    Zn7   S    
O12   Zn13  S    
C4    C12   A    
O20   Zn3   S    
O38   Zn3   S    
C69   O35   A    
O1    Zn5   S    
C72   C81   S    
C80   C84   A    
C30   H33   S    
C15   C23   A    
C62   O15   A    
C79   O4    A    
C49   O52   S    
C98   H9    S    
O9    Zn10  S    
C25   C29   A    
C15   C57   S    
O40   Zn5   S    
O45   Zn5   S    
C2    C11   A    
C78   C83   A    
C93   H4    S    
O43   Zn8   S    
O27   Zn3   S    
C45   C47   A    
O29   Zn16  S    
O56   Zn6   S    
O41   Zn6   S    
C39   C61   S    
C11   C20   A    
C18   C27   A    
C27   C31   A    
C52   C58   A    
C50   C58   A    
C7    H19   S    
O1    Zn14  S    
O28   Zn4   S    
O21   Zn4   S    
C43   C100  A    
O1    Zn12  S    
C64   O10   A    
C3    H13   S    
O14   Zn12  S    
C40   C97   A    
C32   H36   S    
C24   O58   A    
O46   Zn9   S    
C58   C70   S    
C21   C34   A    
C76   C91   S    
O36   Zn16  S    
C85   C86   A    
C99   H10   S    
O34   Zn8   S    
C12   C21   A    
C34   H38   S    
C71   O37   A    
O23   Zn16  S    
C47   O50   S    
C5    H17   S    
O23   Zn3   S    
C38   C95   A    
C86   H12   S    
C95   H6    S    
O39   Zn4   S    
O35   Zn15  S    
C2    H15   S    
C66   O19   A    
C97   H8    S    
C10   C19   A    
C43   C65   S    
C56   C71   S    
C72   O40   A    
C73   O46   A    
C65   O11   A    
C50   C51   A    
C13   O56   A    
O4    Zn8   S    
O47   Zn10  S    
C23   C28   A    
C76   C77   A    
C12   C35   S    
H47   O55   S    
C10   C90   A    
C5    C14   A    
C37   C59   S    
C26   H29   S    
C67   O31   A    
C46   O60   A    
C47   C54   A    
C38   C60   S    
C20   C33   A    
C37   C94   A    
C31   H35   S    
C7    C16   A    
C96   H7    S    
C2    C99   A    
C26   C30   A    
O6    Zn9   S    
C3    C44   A    
C4    C100  A    
C62   O8    A    
C36   C44   A    
C89   C91   S    
C35   O24   A    
C16   C46   S    
C42   C64   S    
C73   C82   S    
C85   H1    S    
C52   C53   A    
C8    H20   S    
C23   H27   S    
H44   O53   S    
O11   Zn10  S    
O12   Zn6   S    
C16   C25   A    
C63   O9    A    
O59   Zn6   S    
C33   C42   A    
C89   H50   S    
C9    C97   A    
C49   C54   A    
C66   O13   A    
C79   O28   A    
O48   Zn11  S    
O23   Zn7   S    
C4    H16   S    
C70   O38   A    
C1    O45   A    
C34   C43   A    
C84   C88   A    
C3    C5    A    
C10   C13   S    
C93   H2    S    
C72   O44   A    
C55   C67   S    
C7    C95   A    
O42   Zn7   S    
O60   Zn7   S    
C70   O36   A    
C22   C36   A    
C57   O2    A    
C68   O27   A    
O5    Zn1   S    
C8    C17   A    
C65   O18   A    
C28   H31   S    
H42   O51   S    
C14   C22   A    
O22   Zn14  S    
C88   H34   S    
C82   C86   A    
H40   O49   S    
C42   C99   A    
C91   H51   S    
O44   Zn1   S    
C59   O5    A    
C63   O20   A    
C54   C69   S    
C28   C37   A    
O13   Zn11  S    
C48   C49   A    
O33   Zn14  S    
O34   Zn2   S    
C92   C93   S    
O23   Zn10  S    
C6    H18   S    
C30   C39   A    
H43   O52   S    
O12   Zn15  S    
C90   H14   S    
O25   Zn12  S    
C36   H39   S    
C39   C96   A    
C20   H24   S    
C22   H26   S    
O37   Zn2   S    
C69   O32   A    
C50   O53   S    
C9    C18   A    
O34   Zn4   S    
O10   Zn11  S    
C45   C55   A    
C87   C88   A    
C45   O49   S    
C91   H49   S    
H41   O50   S    
O30   Zn2   S    
C27   H30   S    
C60   O17   A    
C41   C98   A    
O2    Zn8   S    
O8    Zn9   S    
C71   O39   A    
C64   O21   A    
H48   O57   S    
C21   H25   S    
C90   C98   A    
C81   C85   A    
C59   O16   A    
C67   O33   A    
C41   C63   S    
C75   O43   A    
