data_mof_unit_pretest_1543.cif
_audit_creation_date              2012-10-26T18:20:08-0400
_audit_creation_method            fapswitch 2.2
_symmetry_space_group_name_H-M    P1
_symmetry_Int_Tables_number       1
_space_group_crystal_system       triclinic
_cell_length_a                    28.565909
_cell_length_b                    18.371488
_cell_length_c                    21.7464
_cell_angle_alpha                 89.492442
_cell_angle_beta                  139.974346
_cell_angle_gamma                 90.39286
_cell_volume                      7339.42172495

loop_
_atom_site_label
_atom_site_type_symbol
_atom_type_description
_atom_site_fract_x
_atom_site_fract_y
_atom_site_fract_z
_atom_type_partial_charge
C1    C     C_R   0.860105 0.500031 0.860481 0.552813
C2    C     C_R   0.955867 0.458610 0.237806 -0.160840
C3    C     C_R   0.564732 0.008847 0.784066 -0.159205
C4    C     C_R   0.454535 0.959926 0.236414 -0.160634
C5    C     C_R   0.998569 0.516780 0.684844 0.005006
C6    C     C_R   0.999299 0.508421 0.313037 0.021861
C7    C     C_R   0.499366 0.016871 0.685536 0.004772
C8    C     C_R   0.499328 0.008530 0.313035 0.021705
C9    C     C_1   0.782582 0.500232 0.783548 -0.061657
C10   C     C_1   0.217430 0.500061 0.217137 -0.049497
C11   C     C_1   0.282579 0.000000 0.783284 -0.058787
C12   C     C_R   0.139900 0.500016 0.139848 0.548630
C13   C     C_1   0.717430 0.000065 0.217140 -0.049928
C14   C     C_1   0.717276 0.500352 0.718218 -0.064370
C15   C     C_1   0.282724 0.500070 0.282307 -0.044378
C16   C     C_1   0.217281 0.000045 0.718093 -0.065212
C17   C     C_1   0.782724 0.000076 0.282310 -0.044447
C18   C     C_R   0.000023 0.639870 0.501779 0.568407
C19   C     C_R   0.999991 0.360083 0.499834 0.562102
C20   C     C_R   0.500028 0.139876 0.501648 0.569984
C21   C     C_R   0.499991 0.860083 0.499833 0.562109
C22   C     C_R   0.999876 0.507123 0.618802 0.570505
C23   C     C_R   0.360102 0.999995 0.860323 0.552879
C24   C     C_R   0.999731 0.503585 0.380686 0.589853
C25   C     C_R   0.500045 0.007032 0.618941 0.572052
C26   C     C_R   0.499737 0.003648 0.380683 0.589536
C27   C     C_R   0.499986 0.639727 0.499768 0.558153
C28   C     C_R   0.500104 0.360265 0.500432 0.554171
C29   C     C_R   0.999987 0.139727 0.499770 0.558803
C30   C     C_R   0.000089 0.860265 0.500421 0.556059
C31   C     C_R   0.639728 0.500188 0.639995 0.552920
C32   C     C_R   0.360270 0.500035 0.360091 0.555856
C33   C     C_R   0.139728 0.000049 0.639980 0.553705
C34   C     C_R   0.639900 0.000016 0.139847 0.548498
C35   C     C_R   0.860270 0.000040 0.360091 0.556485
C36   C     C_1   0.000149 0.717427 0.502392 -0.073326
C37   C     C_1   0.999972 0.282555 0.499494 -0.044255
C38   C     C_1   0.500173 0.217427 0.502312 -0.074177
C39   C     C_1   0.499972 0.782555 0.499494 -0.043895
C40   C     C_R   0.000163 0.500123 0.881271 0.542204
C41   C     C_R   0.002610 0.499595 0.121524 0.542174
C42   C     C_R   0.499459 0.000174 0.880545 0.541604
C43   C     C_R   0.502404 0.999584 0.121309 0.541969
C44   C     C_1   0.500199 0.282727 0.501579 -0.066990
C45   C     C_R   0.064230 0.509231 0.847305 -0.145096
C46   C     C_1   0.499971 0.717264 0.499388 -0.043030
C47   C     C_1   0.000172 0.782726 0.501586 -0.064829
C48   C     C_1   0.999971 0.217263 0.499388 -0.043565
C49   C     C_R   0.866752 0.476760 0.675266 -0.102742
C50   C     C_R   0.111343 0.583309 0.298049 -0.095597
C51   C     C_R   0.364672 0.986925 0.672660 -0.105696
C52   C     C_R   0.613186 0.080459 0.299806 -0.095935
C53   C     C_R   0.801545 0.477877 0.575957 0.148999
C54   C     C_R   0.154152 0.635046 0.370861 0.143302
C55   C     C_R   0.300517 0.990087 0.573274 0.148200
C56   C     C_R   0.958617 0.455104 0.177018 -0.143505
C57   C     C_R   0.657607 0.130766 0.374313 0.143354
C58   C     C_R   0.798744 0.517680 0.517214 0.037498
C59   C     C_R   0.136885 0.655016 0.414453 0.038956
C60   C     C_R   0.300205 0.027722 0.516084 0.040075
C61   C     C_R   0.640989 0.151138 0.418601 0.038622
C62   C     C_R   0.864596 0.543176 0.557042 0.120863
C63   C     C_R   0.080287 0.617492 0.389046 0.098876
C64   C     C_R   0.367413 0.050701 0.558382 0.118400
C65   C     C_R   0.583229 0.115361 0.391947 0.099484
C66   C     C_R   0.931805 0.520400 0.650925 0.031219
C67   C     C_R   0.564073 0.004648 0.847217 -0.144627
C68   C     C_R   0.046054 0.556633 0.327023 0.030269
C69   C     C_R   0.432997 0.025079 0.651670 0.030053
C70   C     C_R   0.547337 0.055471 0.328263 0.030570
C71   C     C_R   0.932145 0.500126 0.713766 -0.039589
C72   C     C_R   0.054919 0.546440 0.272229 -0.038485
C73   C     C_R   0.431686 0.005461 0.713048 -0.039596
C74   C     C_R   0.555855 0.045092 0.273112 -0.038660
C75   C     C_R   0.998596 0.500785 0.812918 0.018025
C76   C     C_R   0.007213 0.499074 0.193028 0.009269
C77   C     C_R   0.497932 0.001132 0.812195 0.018439
C78   C     C_R   0.457162 0.956366 0.175499 -0.143696
C79   C     C_R   0.506911 0.999017 0.192689 0.009806
C80   C     C_3   0.713551 0.446545 0.567548 -0.235088
C81   C     C_3   0.197178 0.714631 0.332231 -0.267810
C82   C     C_3   0.202358 0.975232 0.548915 -0.220795
C83   C     C_3   0.703107 0.209205 0.338340 -0.267297
C84   C     C_2   0.727722 0.533489 0.415922 0.208183
C85   C     C_2   0.174531 0.716977 0.482236 0.210993
C86   C     C_2   0.230543 0.042835 0.413648 0.213592
C87   C     C_2   0.680532 0.211813 0.488421 0.209222
C88   C     C_3   0.892495 0.667817 0.554784 -0.286099
C89   C     C_R   0.064424 0.513268 0.783679 -0.159219
C90   C     C_3   0.984328 0.694940 0.327751 -0.287191
C91   C     C_3   0.403160 0.172918 0.562854 -0.286457
C92   C     C_3   0.489617 0.196069 0.332169 -0.288839
Cu1   Cu    Cu3+1 0.000000 0.427490 0.000000 0.955904
Cu2   Cu    Cu3+1 0.500000 0.500000 0.561800 0.963631
Cu3   Cu    Cu3+1 0.000000 1.000000 0.438200 0.950672
Cu4   Cu    Cu3+1 0.000000 0.000000 0.561800 0.964615
Cu5   Cu    Cu3+1 0.000000 0.572510 0.000000 0.940540
Cu6   Cu    Cu3+1 0.500000 0.927490 0.000000 0.957697
Cu7   Cu    Cu3+1 0.500000 0.072510 0.000000 0.939744
Cu8   Cu    Cu3+1 0.072520 0.500000 0.572540 0.954630
Cu9   Cu    Cu3+1 0.927480 0.500000 0.427460 0.945113
Cu10  Cu    Cu3+1 0.572520 0.000000 0.572540 0.953697
Cu11  Cu    Cu3+1 0.427480 1.000000 0.427460 0.945334
Cu12  Cu    Cu3+1 0.500000 0.500000 0.438200 0.963722
H1    H     H_    0.115490 0.509668 0.923530 0.120390
H2    H     H_    0.919839 0.421973 0.226330 0.131797
H3    H     H_    0.616447 0.005079 0.812430 0.143975
H4    H     H_    0.417555 0.924239 0.223962 0.132607
H5    H     H_    0.702527 0.422580 0.463252 0.302147
H6    H     H_    0.700346 0.505167 0.559550 0.184248
H7    H     H_    0.753661 0.429074 0.643052 0.136605
H8    H     H_    0.663426 0.413734 0.524312 0.173835
H9    H     H_    0.257509 0.682637 0.469922 0.287409
H10   H     H_    0.248002 0.733008 0.360346 0.145446
H11   H     H_    0.168010 0.763026 0.320737 0.184241
H12   H     H_    0.922331 0.418238 0.116831 0.135345
H13   H     H_    0.162747 0.687132 0.262838 0.150849
H14   H     H_    0.205017 0.929241 0.463730 0.300312
H15   H     H_    0.147797 0.996660 0.481367 0.190782
H16   H     H_    0.233347 0.019255 0.603132 0.144606
H17   H     H_    0.195843 0.928747 0.574805 0.168231
H18   H     H_    0.762485 0.174917 0.474931 0.288224
H19   H     H_    0.754475 0.225969 0.366998 0.145934
H20   H     H_    0.675585 0.258474 0.328650 0.184052
H21   H     H_    0.667730 0.182982 0.267961 0.150716
H22   H     H_    0.722737 0.533842 0.361237 0.094514
H23   H     H_    0.615175 0.001287 0.923386 0.120519
H24   H     H_    0.186088 0.715368 0.542733 0.101198
H25   H     H_    0.228139 0.043427 0.361423 0.094254
H26   H     H_    0.691489 0.210015 0.548409 0.100379
H27   H     H_    0.817902 0.601434 0.435810 0.240994
H28   H     H_    0.892277 0.704914 0.513959 0.147906
H29   H     H_    0.949476 0.662961 0.628635 0.151935
H30   H     H_    0.858110 0.691843 0.556827 0.151354
H31   H     H_    0.080725 0.674957 0.471846 0.247702
H32   H     H_    0.956011 0.713837 0.341073 0.150035
H33   H     H_    0.944450 0.663416 0.260164 0.157865
H34   H     H_    0.419925 0.920474 0.114332 0.134568
H35   H     H_    0.002565 0.743282 0.319134 0.156945
H36   H     H_    0.323857 0.111355 0.440303 0.241590
H37   H     H_    0.404089 0.209929 0.523143 0.147766
H38   H     H_    0.460167 0.164678 0.635677 0.151582
H39   H     H_    0.371272 0.199070 0.567961 0.150010
H40   H     H_    0.584765 0.172942 0.475825 0.247941
H41   H     H_    0.461520 0.216046 0.345435 0.149987
H42   H     H_    0.448987 0.165826 0.263576 0.158321
H43   H     H_    0.509758 0.243690 0.325522 0.155839
H44   H     H_    0.867789 0.451456 0.721383 0.137579
H45   H     H_    0.124539 0.570083 0.264214 0.146326
H46   H     H_    0.362861 0.963051 0.716543 0.139603
H47   H     H_    0.625822 0.067040 0.265334 0.145498
H48   H     H_    0.116200 0.513247 0.811958 0.143738
N1    N     N_2   0.741770 0.433644 0.535189 -0.471024
N2    N     N_2   0.215015 0.665190 0.400105 -0.502099
N3    N     N_2   0.238806 0.949753 0.531239 -0.483470
N4    N     N_2   0.719375 0.159024 0.404495 -0.501631
N5    N     N_2   0.864036 0.597474 0.508805 -0.488485
N6    N     N_2   0.046270 0.650007 0.406634 -0.508382
N7    N     N_2   0.370027 0.104382 0.512856 -0.489144
N8    N     N_2   0.549823 0.149108 0.409870 -0.508515
O1    O     O_R   0.894200 0.438770 0.894190 -0.509180
O2    O     O_R   0.000010 0.561230 0.090190 -0.513907
O3    O     O_R   0.000010 0.438770 0.090190 -0.506123
O4    O     O_R   0.999990 0.561230 0.909810 -0.502844
O5    O     O_R   0.499990 0.938770 0.909810 -0.508175
O6    O     O_R   0.500010 0.061230 0.090190 -0.513305
O7    O     O_R   0.500010 0.938770 0.090190 -0.506458
O8    O     O_R   0.499990 0.061230 0.909810 -0.503525
O9    O     O_R   0.061240 0.605830 0.561270 -0.508696
O10   O     O_R   0.938760 0.394170 0.438730 -0.508384
O11   O     O_R   0.938760 0.605830 0.438730 -0.497808
O12   O     O_R   0.105800 0.561230 0.105810 -0.517615
O13   O     O_R   0.061240 0.394170 0.561270 -0.499587
O14   O     O_R   0.561240 0.105830 0.561270 -0.509095
O15   O     O_R   0.438760 0.894170 0.438730 -0.508307
O16   O     O_R   0.438760 0.105830 0.438730 -0.496885
O17   O     O_R   0.561240 0.894170 0.561270 -0.499695
O18   O     O_R   0.061260 0.500000 0.651450 -0.520830
O19   O     O_R   0.938740 0.500000 0.348550 -0.513968
O20   O     O_R   0.561260 0.000000 0.651450 -0.521529
O21   O     O_R   0.438740 0.000000 0.348550 -0.514389
O22   O     O_R   0.938780 0.500000 0.528960 -0.481611
O23   O     O_R   0.105800 0.438770 0.105810 -0.499110
O24   O     O_R   0.061220 0.500000 0.471040 -0.493511
O25   O     O_R   0.438780 0.000000 0.528960 -0.482403
O26   O     O_R   0.561220 0.000000 0.471040 -0.493310
O27   O     O_R   0.500010 0.605810 0.447830 -0.495917
O28   O     O_R   0.499990 0.394190 0.552170 -0.505459
O29   O     O_R   0.499990 0.605810 0.552170 -0.502425
O30   O     O_R   0.500010 0.394190 0.447830 -0.510155
O31   O     O_R   0.000010 0.105810 0.447830 -0.498290
O32   O     O_R   0.999990 0.894190 0.552170 -0.504880
O33   O     O_R   0.999990 0.105810 0.552170 -0.501718
O34   O     O_R   0.894200 0.561230 0.894190 -0.496011
O35   O     O_R   0.000010 0.894190 0.447830 -0.507319
O36   O     O_R   0.605800 0.500000 0.553630 -0.525978
O37   O     O_R   0.394200 0.500000 0.446370 -0.501664
O38   O     O_R   0.105800 0.000000 0.553630 -0.533234
O39   O     O_R   0.894200 1.000000 0.446370 -0.501138
O40   O     O_R   0.605820 0.500000 0.658030 -0.497102
O41   O     O_R   0.394180 0.500000 0.341970 -0.503206
O42   O     O_R   0.105820 1.000000 0.658030 -0.495791
O43   O     O_R   0.894180 0.000000 0.341970 -0.503258
O44   O     O_2   0.673936 0.547093 0.392644 -0.504930
O45   O     O_R   0.394200 0.938770 0.894190 -0.505749
O46   O     O_2   0.191738 0.771245 0.470187 -0.521053
O47   O     O_2   0.174908 0.055274 0.386450 -0.507231
O48   O     O_2   0.700038 0.265275 0.478678 -0.517885
O49   O     O_R   0.605800 0.061230 0.105810 -0.517150
O50   O     O_R   0.605800 0.938770 0.105810 -0.499632
O51   O     O_R   0.394200 0.061230 0.894190 -0.498792
O52   O     O_R   0.999990 0.438770 0.909810 -0.510076

loop_
_geom_bond_atom_site_label_1
_geom_bond_atom_site_label_2
_ccdc_geom_bond_type
C58   C62   A    
Cu4   O39   S    
C35   O43   A    
C18   C36   S    
C53   N1    S    
C56   C76   A    
C24   O24   A    
C8    C26   S    
Cu3   Cu4   S    
C67   C77   A    
C19   O10   A    
C82   H16   S    
C14   C31   S    
C4    C8    A    
Cu8   O18   S    
C19   O13   A    
C90   H35   S    
C25   O20   A    
C35   O39   A    
C15   C32   S    
C12   O12   A    
Cu7   O51   S    
C18   O11   A    
C38   C44   T    
Cu6   O50   S    
C50   C54   A    
Cu5   O12   S    
C87   H26   S    
Cu2   O28   S    
C88   H29   S    
C40   O4    A    
C24   O19   A    
C3    C7    A    
C10   C15   T    
C28   O28   A    
H36   N7    S    
C31   O36   A    
C25   O25   A    
C29   O33   A    
C43   O6    A    
C12   O23   A    
Cu1   O3    S    
C43   C79   S    
C65   C70   A    
C91   N7    S    
C81   H13   S    
C33   O42   A    
C20   C38   S    
C64   N7    S    
C36   C47   T    
C32   O41   A    
H27   N5    S    
C50   C72   A    
C72   C76   A    
Cu11  O16   S    
C34   O50   A    
C89   H48   S    
C20   O14   A    
C5    C22   S    
C30   O35   A    
C51   H46   S    
C42   O8    A    
C21   O15   A    
Cu11  O25   S    
C81   H10   S    
C70   C74   A    
C29   O31   A    
Cu6   O45   S    
C69   C73   A    
C52   C74   A    
C30   O32   A    
C83   H20   S    
H40   N8    S    
H5    N1    S    
H9    N2    S    
C82   H17   S    
Cu2   O40   S    
Cu6   O7    S    
C42   O5    A    
Cu3   O31   S    
Cu7   O6    S    
C84   O44   D    
C21   O17   A    
C92   H41   S    
Cu2   Cu12  S    
H31   N6    S    
C55   C60   A    
C23   O45   A    
C92   H43   S    
C80   H8    S    
C2    C6    A    
H18   N4    S    
C82   H15   S    
C83   H21   S    
C65   N8    S    
H14   N3    S    
C78   H34   S    
C31   O40   A    
C45   H1    S    
C85   O46   D    
C91   H39   S    
C54   C59   A    
C84   H22   S    
C57   N4    S    
C62   C66   A    
C29   C48   S    
C92   H42   S    
C30   C47   S    
C80   N1    S    
C1    C9    S    
C60   C86   S    
C78   C79   A    
C27   O27   A    
C83   N4    S    
C3    H3    S    
C88   N5    S    
C28   C44   S    
C81   N2    S    
C49   H44   S    
Cu5   O34   S    
C90   N6    S    
C55   N3    S    
C9    C14   T    
C59   C85   S    
C4    C78   A    
C32   O37   A    
Cu9   O19   S    
C34   O49   A    
C58   C84   S    
C16   C33   S    
Cu12  O36   S    
C90   H32   S    
C11   C16   T    
C66   C71   A    
C21   C39   S    
Cu1   O1    S    
C68   C72   A    
Cu5   O4    S    
Cu12  O30   S    
C6    C68   A    
C81   H11   S    
Cu1   O52   S    
Cu11  O15   S    
C56   H12   S    
C62   N5    S    
Cu9   O10   S    
Cu10  O26   S    
C64   C69   A    
C37   C48   T    
C57   C61   A    
C10   C12   S    
C39   C46   T    
C82   N3    S    
C27   C46   S    
Cu4   O33   S    
Cu5   O2    S    
C74   C79   A    
C41   O3    A    
C67   H23   S    
C19   C37   S    
Cu3   O38   S    
C88   H28   S    
Cu1   Cu5   S    
C90   H33   S    
C45   C89   A    
C61   C87   S    
Cu7   O8    S    
Cu7   O49   S    
C18   O9    A    
C22   O18   A    
Cu12  O27   S    
C63   C68   A    
Cu3   O35   S    
Cu8   O9    S    
Cu11  O21   S    
C59   C63   A    
C3    C67   A    
C51   C73   A    
C5    C66   A    
C28   O30   A    
C86   O47   D    
C7    C69   A    
C53   C58   A    
C86   H25   S    
Cu4   O42   S    
C6    C24   S    
C43   O7    A    
Cu10  O14   S    
C17   C35   S    
C40   O52   A    
C8    C70   A    
C7    C25   S    
C40   C75   S    
C45   C75   A    
Cu10  O20   S    
C60   C64   A    
Cu2   O37   S    
Cu12  O41   S    
C91   H38   S    
C1    O34   A    
Cu2   O29   S    
C88   H30   S    
C13   C34   S    
C22   O22   A    
C2    C56   A    
C41   C76   S    
C71   C75   A    
C92   N8    S    
C50   H45   S    
Cu4   O32   S    
C20   O16   A    
C23   O51   A    
C33   O38   A    
C52   H47   S    
C49   C53   A    
C80   H7    S    
C11   C23   S    
Cu8   Cu9   S    
C2    H2    S    
Cu9   O11   S    
C51   C55   A    
Cu10  Cu11  S    
Cu8   O24   S    
C87   O48   D    
Cu6   O5    S    
C52   C57   A    
C4    H4    S    
C1    O1    A    
C13   C17   T    
C26   O21   A    
C61   C65   A    
C42   C77   S    
Cu6   Cu7   S    
C49   C71   A    
C80   H6    S    
Cu8   O13   S    
Cu10  O17   S    
C73   C77   A    
C26   O26   A    
C85   H24   S    
C27   O29   A    
C63   N6    S    
C83   H19   S    
C54   N2    S    
C41   O2    A    
Cu1   O23   S    
Cu3   O43   S    
C5    C89   A    
Cu9   O22   S    
C91   H37   S    
