data_mof_unit_pretest_682.cif
_audit_creation_date              2012-12-10T17:45:36-0500
_audit_creation_method            fapswitch 2.2
_symmetry_space_group_name_H-M    P1
_symmetry_Int_Tables_number       1
_space_group_crystal_system       triclinic
_cell_length_a                    11.527323
_cell_length_b                    10.727417
_cell_length_c                    9.971191
_cell_angle_alpha                 90.909765
_cell_angle_beta                  91.127222
_cell_angle_gamma                 93.346522
_cell_volume                      1230.5016379

loop_
_atom_site_label
_atom_site_type_symbol
_atom_type_description
_atom_site_fract_x
_atom_site_fract_y
_atom_site_fract_z
_atom_type_partial_charge
C1    C     C_R   0.509245 0.260427 0.499366 0.933343
C2    C     C_R   0.467486 0.871123 0.505525 -0.203943
C3    C     C_R   0.360239 0.306897 0.121816 0.535434
C4    C     C_R   0.282403 0.502973 0.499345 0.901070
C5    C     C_R   0.323244 0.200449 0.042721 0.517301
C6    C     C_R   0.324043 0.210407 0.903588 -0.440767
C7    C     C_R   0.367419 0.319043 0.847511 -0.204226
C8    C     C_R   0.434095 0.409490 0.922694 0.106083
C9    C     C_R   0.432896 0.407003 0.066717 -0.029682
C10   C     C_R   0.563470 0.586803 0.074411 -0.025256
C11   C     C_R   0.563609 0.586541 0.931816 -0.009457
C12   C     C_R   0.589589 0.054976 0.857225 0.300140
C13   C     C_R   0.486862 0.738500 0.501368 0.915381
C14   C     C_R   0.717886 0.501265 0.501121 0.871470
C15   C     C_1   0.162131 0.508308 0.499079 -0.203086
C16   C     C_1   0.059949 0.509851 0.500626 -0.014374
C17   C     C_1   0.941116 0.508098 0.502657 -0.001756
C18   C     C_1   0.838683 0.504959 0.503154 -0.175325
C19   C     C_R   0.589223 0.116644 0.733897 -0.270788
C20   C     C_3   0.193758 0.323903 0.239842 -0.257206
C21   C     C_3   0.209745 0.009771 0.029884 -0.319658
C22   C     C_R   0.522087 0.942087 0.869044 0.422273
C23   C     C_R   0.461071 0.890571 0.756873 0.406643
C24   C     C_R   0.483095 0.940243 0.627541 -0.202323
C25   C     C_R   0.529231 0.062707 0.620307 -0.067081
C26   C     C_R   0.516584 0.125893 0.498189 -0.175335
C27   C     C_R   0.490893 0.059206 0.377707 0.364439
C28   C     C_R   0.459429 0.931812 0.382618 0.323726
H1    H     H_    0.286407 0.138122 0.836563 0.179323
H2    H     H_    0.382589 0.920837 0.207145 0.396944
H3    H     H_    0.146240 0.256734 0.169637 0.161907
H4    H     H_    0.174325 0.420230 0.210754 0.158574
H5    H     H_    0.156860 0.304344 0.339528 0.178455
H6    H     H_    0.168682 0.938366 0.095911 0.206388
H7    H     H_    0.264362 0.959974 0.958451 0.220123
H8    H     H_    0.138272 0.056055 0.977421 0.153874
H9    H     H_    0.347798 0.328068 0.743885 0.243517
H10   H     H_    0.615891 0.657541 0.881051 0.142727
H11   H     H_    0.640448 0.203899 0.725946 0.178105
H12   H     H_    0.615513 0.658006 0.129958 0.148142
H13   H     H_    0.524352 0.058198 0.187471 0.371164
H14   H     H_    0.689605 0.186583 0.943272 0.341915
H15   H     H_    0.580163 0.906757 0.047532 0.355717
H16   H     H_    0.323786 0.789541 0.698571 0.324771
N1    N     N_R   0.498930 0.498800 0.142780 -0.097727
N2    N     N_R   0.498900 0.498720 0.857170 -0.099118
O1    O     O_R   0.500000 0.316780 0.614690 -0.665254
O2    O     O_3   0.649794 0.106008 0.967986 -0.785424
O3    O     O_3   0.513380 0.879204 0.988263 -0.736808
O4    O     O_3   0.376719 0.796525 0.778310 -0.707694
O5    O     O_3   0.419830 0.864404 0.269833 -0.726751
O6    O     O_3   0.316017 0.312207 0.248485 -0.534080
O7    O     O_3   0.278585 0.095577 0.110547 -0.591840
O8    O     O_R   0.499990 0.316750 0.385360 -0.500261
O9    O     O_R   0.334450 0.500030 0.614670 -0.630581
O10   O     O_R   0.334440 0.500000 0.385330 -0.557527
O11   O     O_R   0.500010 0.683250 0.614640 -0.602300
O12   O     O_R   0.500000 0.683220 0.385310 -0.555347
O13   O     O_R   0.665560 0.500000 0.614670 -0.627305
O14   O     O_R   0.665550 0.499970 0.385330 -0.621131
O15   O     O_3   0.503424 0.118985 0.256892 -0.715216
Zn1   Zn    Zn3+2 0.500010 0.500020 0.653130 0.956826
Zn2   Zn    Zn3+2 0.499990 0.499980 0.346870 1.038852

loop_
_geom_bond_atom_site_label_1
_geom_bond_atom_site_label_2
_ccdc_geom_bond_type
C11   H10   S    
H2    O5    S    
C9    N1    A    
C6    C7    A    
C3    C9    A    
C14   O14   A    
C14   C18   S    
C12   O2    S    
C21   H6    S    
H13   O15   S    
C3    O6    S    
O1    Zn1   S    
C17   C18   T    
C7    H9    S    
O10   Zn2   S    
C7    C8    A    
C20   O6    S    
C21   H8    S    
H14   O2    S    
C4    O10   A    
C21   O7    S    
C14   O13   A    
C26   C27   A    
C5    C6    A    
C19   H11   S    
C4    C15   S    
O14   Zn2   S    
C21   H7    S    
C20   H5    S    
C12   C19   A    
C5    O7    S    
N2    Zn1   S    
C22   O3    S    
C4    O9    A    
C2    C24   A    
C1    C26   S    
C19   C25   A    
C28   O5    S    
C8    N2    A    
C13   O11   A    
C10   C11   A    
C23   C24   A    
C15   C16   T    
O9    Zn1   S    
C12   C22   A    
O11   Zn1   S    
C6    H1    S    
C24   C25   A    
C10   H12   S    
C20   H4    S    
C10   N1    A    
H16   O4    S    
C27   C28   A    
C23   O4    S    
C2    C13   S    
O8    Zn2   S    
H15   O3    S    
C11   N2    A    
C2    C28   A    
C13   O12   A    
C27   O15   S    
C3    C5    A    
C25   C26   A    
C22   C23   A    
C1    O8    A    
N1    Zn2   S    
C1    O1    A    
O12   Zn2   S    
C16   C17   S    
C8    C9    A    
O13   Zn1   S    
C20   H3    S    
