data_mof_unit_pretest_953.cif
_audit_creation_date              2012-12-11T14:56:33-0500
_audit_creation_method            fapswitch 2.2
_symmetry_space_group_name_H-M    P1
_symmetry_Int_Tables_number       1
_space_group_crystal_system       triclinic
_cell_length_a                    10.548126
_cell_length_b                    10.700192
_cell_length_c                    17.132624
_cell_angle_alpha                 80.765549
_cell_angle_beta                  89.711451
_cell_angle_gamma                 119.510556
_cell_volume                      1653.05116275

loop_
_atom_site_label
_atom_site_type_symbol
_atom_type_description
_atom_site_fract_x
_atom_site_fract_y
_atom_site_fract_z
_atom_type_partial_charge
C1    C     C_R   0.223425 0.855018 0.128800 0.545190
C2    C     C_R   0.816299 0.467771 0.250603 -0.175148
C3    C     C_R   0.798131 0.436810 0.174842 -0.139966
C4    C     C_R   0.657155 0.351756 0.153502 -0.015708
C5    C     C_1   0.669351 0.849249 0.205415 -0.021402
C6    C     C_1   0.680240 0.838973 0.274856 -0.024602
C7    C     C_1   0.181671 0.826909 0.211286 -0.043123
C8    C     C_1   0.152238 0.820303 0.279927 -0.035846
C9    C     C_1   0.642910 0.319863 0.777697 -0.061534
C10   C     C_1   0.649794 0.342113 0.707181 -0.057482
C11   C     C_R   0.646799 0.701038 0.815398 0.223685
C12   C     C_R   0.637569 0.281891 0.085531 0.558714
C13   C     C_R   0.644663 0.677698 0.737740 -0.183025
C14   C     C_R   0.694830 0.794914 0.674281 0.044141
C15   C     C_R   0.753194 0.939524 0.687162 0.220573
C16   C     C_R   0.756624 0.962692 0.764809 -0.197923
C17   C     C_R   0.697452 0.843923 0.828101 0.032521
C18   C     C_R   0.088788 0.886500 0.789093 -0.148487
C19   C     C_R   0.075666 0.885168 0.709597 -0.188849
C20   C     C_R   0.119908 0.804449 0.671091 0.046798
C21   C     C_R   0.166195 0.713897 0.714572 0.261693
C22   C     C_R   0.185691 0.721311 0.794574 -0.116203
C23   C     C_R   0.640851 0.858742 0.125366 0.553965
C24   C     C_R   0.152446 0.812325 0.830578 -0.008647
C25   C     C_R   0.686489 0.809595 0.357164 0.557852
C26   C     C_R   0.722237 0.450881 0.383493 0.543540
C27   C     C_R   0.104046 0.810335 0.359292 0.552191
C28   C     C_R   0.701766 0.764127 0.595992 0.572960
C29   C     C_R   0.677948 0.381395 0.624220 0.555446
C30   C     C_R   0.091395 0.799486 0.588968 0.571789
C31   C     C_R   0.217111 0.858294 0.902134 0.551902
C32   C     C_R   0.636817 0.282573 0.860518 0.555682
C33   C     C_R   0.649038 0.864878 0.901206 0.588899
C34   C     C_R   0.534233 0.306518 0.206174 -0.066481
C35   C     C_R   0.551035 0.330345 0.283361 0.236012
C36   C     C_R   0.694267 0.412608 0.305703 0.022032
Cr1   Cr    Cr6+3 0.402240 0.783890 0.019450 1.054387
Cr2   Cr    Cr6+3 0.382360 0.097900 0.991800 1.040922
Cr3   Cr    Cr6+3 0.715380 0.118170 0.988700 1.028401
Cr4   Cr    Cr6+3 0.936650 0.882420 0.465510 1.079795
Cr5   Cr    Cr6+3 0.605770 0.565620 0.493360 1.062949
Cr6   Cr    Cr6+3 0.921340 0.550490 0.496380 1.052749
H1    H     H_    0.424640 0.238089 0.190611 0.167755
H2    H     H_    0.031017 0.948596 0.678189 0.159387
H3    H     H_    0.237468 0.665409 0.826333 0.147123
H4    H     H_    0.926028 0.531388 0.267095 0.134005
H5    H     H_    0.893978 0.472746 0.134404 0.148140
H6    H     H_    0.603086 0.568165 0.726557 0.105151
H7    H     H_    0.793063 0.072158 0.775211 0.124072
H8    H     H_    0.059899 0.954882 0.816396 0.146037
O1    O     O_R   0.521780 0.757110 0.108900 -0.498227
O2    O     O_R   0.513330 0.228330 0.898660 -0.497474
O3    O     O_R   0.739230 0.266130 0.888050 -0.518177
O4    O     O_R   0.712580 0.991850 0.918770 -0.526924
O5    O     O_3   0.499990 0.999980 0.999980 -0.263012
O6    O     O_R   0.083770 0.911170 0.376030 -0.477426
O7    O     O_R   0.808770 0.880340 0.383890 -0.489184
O8    O     O_R   0.584340 0.689460 0.394160 -0.494142
O9    O     O_R   0.614320 0.443940 0.423590 -0.478101
O10   O     O_R   0.805020 0.410040 0.421340 -0.493260
O11   O     O_R   0.049240 0.685450 0.403290 -0.513599
O12   O     O_R   0.275160 0.783810 0.101120 -0.497764
O13   O     O_R   0.077520 0.903010 0.551800 -0.529977
O14   O     O_R   0.802980 0.872780 0.546830 -0.435530
O15   O     O_R   0.578090 0.681300 0.569920 -0.483606
O16   O     O_R   0.608530 0.436370 0.586530 -0.513006
O17   O     O_R   0.798770 0.401880 0.597100 -0.512365
O18   O     O_R   0.043450 0.677890 0.566230 -0.465477
O19   O     O_3   0.821250 0.666180 0.485090 -0.328675
O20   O     O_R   0.237900 0.972600 0.090980 -0.510474
O21   O     O_R   0.511190 0.220540 0.061620 -0.501638
O22   O     O_R   0.736920 0.257720 0.063840 -0.510216
O23   O     O_R   0.710450 0.984050 0.081720 -0.497598
O24   O     O_R   0.524090 0.765520 0.933110 -0.459397
O25   O     O_R   0.277300 0.791600 0.938160 -0.512078
O26   O     O_R   0.240210 0.981010 0.915190 -0.514824
O27   O     O_3   0.208186 0.633499 0.676164 -0.537705
C37   C     C_3   0.125000 0.483888 0.711067 -0.087841
H9    H     H_    0.138753 0.419267 0.670632 0.148713
H10   H     H_    0.005786 0.445889 0.719461 0.126318
H11   H     H_    0.165007 0.460564 0.768382 0.108484
O28   O     O_3   0.426508 0.263310 0.335760 -0.666244
H12   H     H_    0.448482 0.221066 0.386091 0.348196
O29   O     O_3   0.593408 0.586225 0.879418 -0.677775
H13   H     H_    0.549016 0.493107 0.859483 0.327139
O30   O     O_3   0.799734 0.054880 0.623680 -0.651892
H14   H     H_    0.838026 0.147750 0.643717 0.322726

loop_
_geom_bond_atom_site_label_1
_geom_bond_atom_site_label_2
_ccdc_geom_bond_type
Cr1   O24   S    
Cr2   O20   S    
C19   C20   A    
C37   H11   S    
C1    O12   A    
C27   O6    A    
Cr1   O12   S    
C7    C8    T    
C20   C30   S    
O27   C37   S    
C2    H4    S    
Cr4   O13   S    
C25   O7    A    
C18   C24   A    
C21   C22   A    
Cr5   O8    S    
C18   C19   A    
C5    C6    T    
Cr1   O1    S    
C37   H10   S    
Cr3   O4    S    
Cr2   O2    S    
C15   C16   A    
C34   C35   A    
C32   O2    A    
C27   O11   A    
C9    C32   S    
C29   O17   A    
C23   O1    A    
Cr3   O5    S    
Cr2   O5    S    
C35   C36   A    
C16   C17   A    
Cr4   O6    S    
Cr3   O22   S    
C4    C12   S    
C26   O9    A    
C12   O22   A    
C1    C7    S    
C13   C14   A    
Cr2   O26   S    
Cr6   O18   S    
C17   C33   S    
C23   O23   A    
C35   O28   S    
C4    C34   A    
Cr4   O19   S    
C16   H7    S    
Cr5   O9    S    
Cr6   O10   S    
O30   H14   S    
Cr5   O15   S    
Cr6   O19   S    
C31   O25   A    
C5    C23   S    
O29   H13   S    
Cr6   O11   S    
C15   O30   S    
C28   O14   A    
C26   C36   S    
C12   O21   A    
Cr6   O17   S    
C22   C24   A    
C25   O8    A    
C3    C4    A    
C32   O3    A    
C19   H2    S    
C18   H8    S    
Cr5   O19   S    
C9    C10   T    
C2    C36   A    
C33   O4    A    
Cr2   O21   S    
C11   C17   A    
Cr4   O7    S    
C37   H9    S    
C34   H1    S    
C13   H6    S    
Cr5   O16   S    
C11   O29   S    
C1    O20   A    
Cr4   O14   S    
C28   O15   A    
C24   C31   S    
C6    C25   S    
C11   C13   A    
C10   C29   S    
C31   O26   A    
Cr3   O3    S    
C3    H5    S    
C2    C3    A    
Cr3   O23   S    
Cr1   O25   S    
C29   O16   A    
Cr1   O5    S    
C33   O24   A    
C22   H3    S    
C20   C21   A    
O28   H12   S    
C21   O27   S    
C8    C27   S    
C14   C15   A    
C14   C28   S    
C30   O13   A    
C26   O10   A    
C30   O18   A    
