data_mof_unit_pretest_21.cif
_audit_creation_date              2013-03-05T16:12:25-0500
_audit_creation_method            fapswitch 2.2
_symmetry_space_group_name_H-M    P1
_symmetry_Int_Tables_number       1
_space_group_crystal_system       triclinic
_cell_length_a                    10.743062
_cell_length_b                    9.917516
_cell_length_c                    23.411989
_cell_angle_alpha                 90.027428
_cell_angle_beta                  92.435248
_cell_angle_gamma                 90.088541
_cell_volume                      2492.1623046

loop_
_atom_site_label
_atom_site_type_symbol
_atom_site_description
_atom_site_fract_x
_atom_site_fract_y
_atom_site_fract_z
_atom_type_partial_charge
O1    O     O_R   0.316770 0.614620 0.500000 -0.596104
O2    O     O_R   0.683230 0.385380 0.500000 -0.596103
O3    O     O_R   0.683230 0.614620 0.500000 -0.610338
O4    O     O_R   0.316770 0.385380 0.500000 -0.610333
C1    C     C_R   0.260158 0.499907 0.500981 0.890081
C2    C     C_R   0.739842 0.500093 0.499020 0.890082
O5    O     O_R   0.499970 0.614690 0.416160 -0.603496
O6    O     O_R   0.500030 0.385310 0.583840 -0.603497
O7    O     O_R   0.500030 0.614690 0.583840 -0.590584
O8    O     O_R   0.499970 0.385310 0.416160 -0.590589
C3    C     C_R   0.503976 0.499973 0.389426 0.894139
C4    C     C_R   0.496024 0.500027 0.610574 0.894141
Zn1   Zn    Zn3+2 0.500000 0.653120 0.500000 1.049444
Zn2   Zn    Zn3+2 0.500000 0.346880 0.500000 1.049444
C5    C     C_R   0.593774 0.478132 0.879514 0.519249
C6    C     C_R   0.406218 0.521826 0.120486 0.519249
N1    N     N_R   0.480795 0.500505 0.852070 -0.361205
N2    N     N_R   0.519197 0.499457 0.147930 -0.361202
C7    C     C_R   0.375181 0.523131 0.881116 0.511497
C8    C     C_R   0.624811 0.476827 0.118884 0.511498
C9    C     C_R   0.380543 0.523435 0.940855 -0.018292
C10   C     C_R   0.619448 0.476519 0.059145 -0.018290
C11   C     C_R   0.496089 0.500175 0.969968 -0.018528
C12   C     C_R   0.503902 0.499778 0.030031 -0.018527
C13   C     C_R   0.603856 0.477322 0.939159 -0.022476
C14   C     C_R   0.396135 0.522632 0.060841 -0.022474
C15   C     C_R   0.273706 0.545946 0.971976 -0.147911
C16   C     C_R   0.726285 0.454007 0.028023 -0.147909
C17   C     C_R   0.281432 0.545523 0.031484 -0.146263
C18   C     C_R   0.718559 0.454430 0.968515 -0.146265
O9    O     O_2   0.695866 0.457399 0.848996 -0.519810
O10   O     O_2   0.304126 0.542559 0.151003 -0.519817
O11   O     O_2   0.265648 0.544410 0.852160 -0.532177
O12   O     O_2   0.734344 0.455552 0.147839 -0.532183
H1    H     H_    0.183955 0.563881 0.950503 0.197278
H2    H     H_    0.816036 0.436072 0.049497 0.197279
H3    H     H_    0.197410 0.563194 0.054348 0.198332
H4    H     H_    0.802582 0.436759 0.945651 0.198331
C19   C     C_R   0.535273 0.378359 0.238544 -0.087686
C20   C     C_R   0.481434 0.377807 0.761988 -0.085957
H5    H     H_    0.543144 0.283954 0.215723 0.154839
H6    H     H_    0.486234 0.283414 0.785215 0.154560
C21   C     C_R   0.531090 0.378349 0.297764 -0.147023
C22   C     C_R   0.485438 0.377727 0.702840 -0.155442
H7    H     H_    0.539732 0.283349 0.320107 0.208552
H8    H     H_    0.489986 0.282231 0.681015 0.215800
C23   C     C_R   0.515880 0.500047 0.327367 -0.067115
C24   C     C_R   0.484119 0.499948 0.672633 -0.067115
C25   C     C_R   0.514520 0.622261 0.297155 -0.155462
C26   C     C_R   0.468949 0.621646 0.702241 -0.147034
H9    H     H_    0.509940 0.717758 0.318976 0.215821
H10   H     H_    0.460339 0.716653 0.679902 0.208569
C27   C     C_R   0.518521 0.622171 0.238007 -0.085958
C28   C     C_R   0.464764 0.621626 0.761460 -0.087705
H11   H     H_    0.513687 0.716557 0.214777 0.154572
H12   H     H_    0.456925 0.716029 0.784286 0.154830
C29   C     C_R   0.526318 0.500079 0.208717 0.295346
C30   C     C_R   0.473677 0.499897 0.791283 0.295365
C31   C     C_R   0.063235 0.377620 0.497182 -0.126847
C32   C     C_R   0.936765 0.622378 0.502822 -0.126851
C33   C     C_R   0.935661 0.378018 0.494070 -0.110247
C34   C     C_R   0.064340 0.621980 0.505934 -0.110248
H13   H     H_    0.110735 0.282049 0.495878 0.219047
H14   H     H_    0.889265 0.717949 0.504126 0.219052
H15   H     H_    0.887337 0.282963 0.488397 0.211100
H16   H     H_    0.112663 0.717034 0.511608 0.211105
C35   C     C_R   0.872392 0.500258 0.498074 -0.061628
C36   C     C_R   0.127609 0.499740 0.501929 -0.061629
C37   C     C_R   0.576480 0.071972 0.537440 0.216005
C38   C     C_R   0.423517 0.928029 0.462561 0.216007
C39   C     C_R   0.423137 0.071546 0.462721 0.215809
C40   C     C_R   0.576868 0.928455 0.537277 0.215811
N3    N     N_R   0.500000 0.857200 0.500000 -0.233810
N4    N     N_R   0.500000 0.142800 0.500000 -0.233814
N5    N     N_R   0.655725 0.141965 0.578043 0.268074
O13   O     O_R   0.768354 0.171837 0.564399 -0.358082
O14   O     O_R   0.632390 0.133274 0.631916 -0.362007
N6    N     N_R   0.344260 0.858037 0.421963 0.268069
O15   O     O_R   0.231628 0.828187 0.435611 -0.358104
O16   O     O_R   0.367586 0.866715 0.368089 -0.362001
N7    N     N_R   0.339467 0.141012 0.423981 0.267075
O17   O     O_R   0.374873 0.166403 0.372740 -0.358037
O18   O     O_R   0.220752 0.134068 0.432081 -0.365146
N8    N     N_R   0.660560 0.858992 0.576008 0.267062
O19   O     O_R   0.625167 0.833560 0.627248 -0.358040
O20   O     O_R   0.779273 0.865984 0.567907 -0.365154

loop_
_geom_bond_atom_site_label_1
_geom_bond_atom_site_label_2
_geom_bond_distance
_ccdc_geom_bond_type
C38   N6    1.427952 S    
C3    C23   1.463953 S    
C4    C24   1.463951 S    
O3    C2    1.289886 A    
N7    O17   1.298486 A    
C19   H5    1.082965 S    
O5    C3    1.299895 A    
C26   C28   1.389081 A    
O1    C1    1.289880 A    
Zn2   N4    2.023967 S    
C7    C9    1.397351 A    
C12   C14   1.408427 A    
N6    O16   1.299214 A    
C5    C13   1.396030 A    
C15   C17   1.392159 A    
C19   C29   1.396281 A    
C18   H4    1.083281 S    
C32   C34   1.369393 A    
O7    Zn1   1.999687 S    
C32   C35   1.395779 A    
C25   H9    1.078068 S    
C26   H10   1.080060 S    
C11   C12   1.405140 A    
C38   C39   1.423354 A    
O3    Zn1   2.005719 S    
N1    C30   1.421945 S    
C8    O12   1.349758 S    
C20   H6    1.083040 S    
C9    C15   1.403493 A    
C10   C16   1.403492 A    
O2    C2    1.289877 A    
C1    C36   1.425101 S    
N7    O18   1.299064 A    
C22   H8    1.078074 S    
C27   H11   1.083037 S    
C6    C14   1.396037 A    
C28   H12   1.082966 S    
C31   C33   1.369394 A    
C20   C30   1.395636 A    
C34   H16   1.080906 S    
N8    O19   1.298482 A    
C23   C25   1.403432 A    
O8    Zn2   1.999689 S    
C27   C29   1.395638 A    
N6    O15   1.298349 A    
O4    C1    1.289883 A    
C19   C21   1.389082 A    
C15   H1    1.083273 S    
C37   C40   1.423352 A    
N5    O13   1.298347 A    
C31   C36   1.395780 A    
N5    O14   1.299214 A    
C33   C35   1.395831 A    
N2    C29   1.421959 S    
C20   C22   1.387263 A    
O6    C4    1.299890 A    
C38   N3    1.370400 A    
C37   N4    1.370394 A    
C21   H7    1.080062 S    
C40   N8    1.427728 S    
C2    C35   1.425102 S    
C8    C10   1.397358 A    
C9    C11   1.409889 A    
C7    O11   1.349761 S    
C10   C12   1.409887 A    
O1    Zn1   2.004562 S    
C28   C30   1.396284 A    
C13   C18   1.404072 A    
C5    N1    1.367455 A    
O6    Zn2   1.999328 S    
Zn1   N3    2.023967 S    
C40   N3    1.370894 A    
C39   N4    1.370890 A    
C5    O9    1.350123 S    
C6    O10   1.350119 S    
C31   H13   1.078195 S    
C34   C36   1.395830 A    
C32   H14   1.078191 S    
C16   C18   1.392159 A    
C25   C27   1.387261 A    
C24   C26   1.404700 A    
N1    C7    1.366149 A    
C37   N5    1.427953 S    
N2    C8    1.366147 A    
C11   C13   1.408429 A    
O4    Zn2   2.005720 S    
O2    Zn2   2.004561 S    
O7    C4    1.299838 A    
O8    C3    1.299830 A    
C33   H15   1.080909 S    
O5    Zn1   1.999331 S    
C16   H2    1.083272 S    
C14   C17   1.404070 A    
C6    N2    1.367454 A    
C17   H3    1.083282 S    
N8    O20   1.299064 A    
C21   C23   1.404700 A    
C22   C24   1.403438 A    
C39   N7    1.427727 S    
