data_mof_unit_pretest_1963.cif
_audit_creation_date              2012-10-26T17:24:41-0400
_audit_creation_method            fapswitch 2.2
_symmetry_space_group_name_H-M    P1
_symmetry_Int_Tables_number       1
_space_group_crystal_system       triclinic
_cell_length_a                    42.635607
_cell_length_b                    29.424814
_cell_length_c                    29.419611
_cell_angle_alpha                 90.0
_cell_angle_beta                  133.878171
_cell_angle_gamma                 89.99999
_cell_volume                      26604.0074709

loop_
_atom_site_label
_atom_site_type_symbol
_atom_type_description
_atom_site_fract_x
_atom_site_fract_y
_atom_site_fract_z
_atom_type_partial_charge
C1    C     C_R   0.499985 0.585484 0.500003 0.551836
C2    C     C_1   0.835190 0.000002 0.335820 -0.031802
C3    C     C_3   0.761144 0.962843 0.239723 -0.009459
C4    C     C_1   0.373373 0.499998 0.373953 0.005569
C5    C     C_1   0.873373 0.000002 0.373953 0.005569
C6    C     C_1   0.120403 0.500001 0.119902 0.022838
C7    C     C_1   0.620403 0.999999 0.119902 0.022838
C8    C     C_3   0.260993 0.499685 0.304409 -0.071396
C9    C     C_3   0.760993 0.000329 0.304409 -0.071396
C10   C     C_3   0.289234 0.500000 0.289482 -0.080903
C11   C     C_3   0.789234 0.000000 0.289482 -0.080903
C12   C     C_1   0.277686 0.578159 0.233838 0.267250
C13   C     C_1   0.158587 0.500003 0.157710 0.042189
C14   C     C_1   0.277688 0.422487 0.232710 0.267258
C15   C     C_1   0.777688 0.077498 0.232684 0.267259
C16   C     C_1   0.777686 0.921826 0.233864 0.267249
C17   C     C_1   0.658587 0.999997 0.157710 0.042190
C18   C     C_1   0.499970 0.636532 0.499960 -0.030498
C19   C     C_1   0.499971 0.363468 0.499960 -0.030506
C20   C     C_1   0.999971 0.136532 0.499960 -0.030506
C21   C     C_1   0.999971 0.863468 0.499960 -0.030498
C22   C     C_1   0.499961 0.678853 0.499944 -0.022898
C23   C     C_1   0.499961 0.321146 0.499945 -0.022908
C24   C     C_1   0.999961 0.178853 0.499945 -0.022908
C25   C     C_R   0.499985 0.414516 0.500004 0.551830
C26   C     C_1   0.999961 0.821147 0.499944 -0.022898
C27   C     C_1   0.499954 0.729019 0.499942 0.014112
C28   C     C_1   0.499954 0.270981 0.499942 0.014108
C29   C     C_1   0.999954 0.229019 0.499942 0.014107
C30   C     C_1   0.999954 0.770981 0.499942 0.014112
C31   C     C_1   0.499951 0.771341 0.499947 0.013169
C32   C     C_1   0.499951 0.228659 0.499947 0.013171
C33   C     C_1   0.999951 0.271341 0.499947 0.013171
C34   C     C_1   0.999951 0.728659 0.499947 0.013170
C35   C     C_1   0.499951 0.821506 0.499958 -0.024717
C36   C     C_R   0.999985 0.085484 0.500004 0.551830
C37   C     C_1   0.499951 0.178493 0.499958 -0.024712
C38   C     C_1   0.999951 0.321506 0.499958 -0.024712
C39   C     C_1   0.999950 0.678493 0.499958 -0.024717
C40   C     C_1   0.499952 0.863828 0.499969 -0.031297
C41   C     C_1   0.499952 0.136172 0.499969 -0.031293
C42   C     C_1   0.999952 0.363828 0.499969 -0.031293
C43   C     C_1   0.999952 0.636172 0.499969 -0.031297
C44   C     C_R   0.418297 0.499999 0.418503 0.573545
C45   C     C_R   0.918297 0.000001 0.418503 0.573545
C46   C     C_1   0.635091 0.500000 0.634718 -0.038039
C47   C     C_R   0.999985 0.914516 0.500003 0.551836
C48   C     C_1   0.135091 0.000000 0.634718 -0.038039
C49   C     C_1   0.676568 0.500000 0.676181 -0.022492
C50   C     C_1   0.176568 0.000000 0.676181 -0.022492
C51   C     C_1   0.726140 0.500000 0.725827 0.009672
C52   C     C_1   0.226140 1.000000 0.725827 0.009672
C53   C     C_1   0.767619 0.500000 0.767393 0.009695
C54   C     C_1   0.267619 1.000000 0.767393 0.009695
C55   C     C_1   0.817192 0.500000 0.817081 -0.022392
C56   C     C_1   0.317192 0.000000 0.817081 -0.022392
C57   C     C_1   0.858670 0.500000 0.858654 -0.037920
C58   C     C_3   0.204469 0.500006 0.203358 0.027366
C59   C     C_1   0.358670 0.000000 0.858654 -0.037920
C60   C     C_R   0.994839 0.500000 0.080445 0.553942
C61   C     C_R   0.494839 0.000000 0.080445 0.553942
C62   C     C_R   0.075475 0.500000 0.075413 0.569346
C63   C     C_R   0.575475 1.000000 0.075413 0.569346
C64   C     C_R   0.993224 0.500000 0.907790 0.547450
C65   C     C_R   0.493224 0.000000 0.907790 0.547450
C66   C     C_R   0.909162 0.500000 0.909247 0.541156
C67   C     C_R   0.409162 1.000000 0.909247 0.541156
C68   C     C_R   0.584601 0.500000 0.584476 0.542054
C69   C     C_3   0.704469 0.999994 0.203358 0.027366
C70   C     C_R   0.084601 0.000000 0.584476 0.542054
C71   C     C_R   0.499093 0.000000 0.414043 0.547134
C72   C     C_R   0.999093 0.500000 0.414043 0.547134
C73   C     C_R   0.499957 0.914876 0.499984 0.546865
C74   C     C_R   0.499957 0.085123 0.499984 0.546868
C75   C     C_R   0.999957 0.414876 0.499984 0.546867
C76   C     C_R   0.999957 0.585124 0.499984 0.546865
C77   C     C_R   0.500752 0.000000 0.585886 0.546522
C78   C     C_R   0.000752 0.500000 0.585886 0.546522
C79   C     C_1   0.995590 0.500000 0.132234 -0.026717
C80   C     C_3   0.232607 0.500320 0.188301 -0.218330
C81   C     C_1   0.495590 0.000000 0.132234 -0.026717
C82   C     C_1   0.996226 0.500000 0.175187 -0.020557
C83   C     C_1   0.496226 0.000000 0.175187 -0.020557
C84   C     C_1   0.996977 0.500000 0.226093 0.015275
C85   C     C_1   0.496977 0.000000 0.226093 0.015275
C86   C     C_1   0.497591 0.000000 0.269024 0.013865
C87   C     C_1   0.997591 0.500000 0.269024 0.013865
C88   C     C_1   0.498269 1.000000 0.319859 -0.024328
C89   C     C_1   0.998269 0.500000 0.319859 -0.024328
C90   C     C_1   0.498746 0.000000 0.362655 -0.030989
C91   C     C_3   0.732607 0.999665 0.188301 -0.218330
C92   C     C_1   0.998746 0.500000 0.362655 -0.030989
C93   C     C_1   0.994228 0.500000 0.857730 -0.033973
C94   C     C_1   0.494228 0.000000 0.857730 -0.033973
C95   C     C_3   0.232478 0.536808 0.253550 0.374896
C96   C     C_3   0.232479 0.462888 0.253014 0.374890
C97   C     C_3   0.732479 0.037119 0.253002 0.374889
C98   C     C_3   0.732478 0.963199 0.253562 0.374897
C99   C     C_1   0.995387 0.500000 0.816569 -0.026445
C100  C     C_1   0.495387 0.000000 0.816569 -0.026445
C101  C     C_1   0.996919 0.500000 0.767938 0.011068
C102  C     C_1   0.335190 0.499998 0.335820 -0.031802
C103  C     C_1   0.496919 1.000000 0.767938 0.011068
C104  C     C_1   0.498212 1.000000 0.726917 0.010929
C105  C     C_1   0.998212 0.500000 0.726917 0.010929
C106  C     C_1   0.499614 0.000000 0.678152 -0.026135
C107  C     C_1   0.999614 0.500000 0.678152 -0.026135
C108  C     C_1   0.500487 0.000000 0.636696 -0.032375
C109  C     C_1   0.000487 0.500000 0.636696 -0.032375
C110  C     C_3   0.261144 0.537149 0.239711 -0.009459
C111  C     C_3   0.261145 0.463166 0.239175 -0.009478
C112  C     C_3   0.761145 0.036827 0.239163 -0.009479
Cu1   Cu    Cu3+1 0.500480 0.500000 0.542990 0.977983
Cu2   Cu    Cu3+1 0.958020 0.500000 0.458050 0.974834
Cu3   Cu    Cu3+1 0.541920 1.000000 0.541950 0.970822
Cu4   Cu    Cu3+1 0.041920 0.500000 0.541950 0.970822
Cu5   Cu    Cu3+1 0.000480 0.000000 0.542990 0.977983
Cu6   Cu    Cu3+1 0.499450 0.500000 0.457010 0.980989
Cu7   Cu    Cu3+1 0.999450 1.000000 0.457010 0.980989
Cu8   Cu    Cu3+1 0.993800 0.542460 0.993900 0.989424
Cu9   Cu    Cu3+1 0.993800 0.457540 0.993900 0.989597
Cu10  Cu    Cu3+1 0.493800 0.042460 0.993900 0.989601
Cu11  Cu    Cu3+1 0.493800 0.957540 0.993900 0.989421
Cu12  Cu    Cu3+1 0.458020 0.000000 0.458050 0.974834
F1    F     F_    0.216319 0.574924 0.259029 -0.595881
F2    F     F_    0.216320 0.424461 0.257939 -0.595863
F3    F     F_    0.716320 0.075553 0.257914 -0.595862
F4    F     F_    0.716319 0.925091 0.259054 -0.595881
H1    H     H_    0.220130 0.500577 0.140346 0.135816
H2    H     H_    0.720130 0.999397 0.140346 0.135816
H3    H     H_    0.273299 0.499428 0.352245 0.148956
H4    H     H_    0.773299 0.000598 0.352245 0.148956
N1    N     N_1   0.290753 0.610495 0.229233 -0.261458
N2    N     N_1   0.290755 0.390412 0.227638 -0.261411
N3    N     N_1   0.790755 0.109567 0.227602 -0.261410
N4    N     N_1   0.790753 0.889485 0.229269 -0.261458
O1    O     O_R   0.500410 0.561970 0.536310 -0.482922
O2    O     O_R   0.963790 0.500000 0.401850 -0.481125
O3    O     O_R   0.534640 0.000000 0.472710 -0.480605
O4    O     O_R   0.034640 0.500000 0.472710 -0.480605
O5    O     O_R   0.464530 0.938000 0.464560 -0.480330
O6    O     O_R   0.464530 0.062000 0.464560 -0.480329
O7    O     O_R   0.964530 0.438000 0.464560 -0.480328
O8    O     O_R   0.964530 0.562000 0.464560 -0.480330
O9    O     O_R   0.535390 0.937990 0.535420 -0.481705
O10   O     O_R   0.535390 0.062010 0.535420 -0.481702
O11   O     O_R   0.035390 0.437990 0.535420 -0.481703
O12   O     O_R   0.500410 0.438030 0.536310 -0.482942
O13   O     O_R   0.035390 0.562010 0.535420 -0.481704
O14   O     O_R   0.465290 0.000000 0.527290 -0.480819
O15   O     O_R   0.965290 0.500000 0.527290 -0.480819
O16   O     O_R   0.536150 1.000000 0.598150 -0.481529
O17   O     O_R   0.036150 0.500000 0.598150 -0.481529
O18   O     O_R   0.499540 0.561910 0.463710 -0.481989
O19   O     O_R   0.499540 0.438090 0.463710 -0.481964
O20   O     O_R   0.999540 0.061910 0.463710 -0.481963
O21   O     O_R   0.999540 0.938090 0.463710 -0.481990
O22   O     O_R   0.439190 0.500000 0.475090 -0.493623
O23   O     O_R   0.000410 0.061970 0.536310 -0.482942
O24   O     O_R   0.939190 0.000000 0.475090 -0.493623
O25   O     O_R   0.438320 0.500000 0.402480 -0.491793
O26   O     O_R   0.938320 1.000000 0.402480 -0.491793
O27   O     O_R   0.561610 0.500000 0.597520 -0.481409
O28   O     O_R   0.061610 0.000000 0.597520 -0.481409
O29   O     O_R   0.560740 0.500000 0.524910 -0.480987
O30   O     O_R   0.060740 1.000000 0.524910 -0.480987
O31   O     O_R   0.994560 0.535840 0.056620 -0.480930
O32   O     O_R   0.994560 0.464160 0.056620 -0.480942
O33   O     O_R   0.494560 0.035840 0.056620 -0.480943
O34   O     O_R   0.000410 0.938030 0.536310 -0.482922
O35   O     O_R   0.494560 0.964160 0.056620 -0.480930
O36   O     O_R   0.055010 0.535850 0.055100 -0.488992
O37   O     O_R   0.055010 0.464150 0.055100 -0.488849
O38   O     O_R   0.555010 0.035850 0.055100 -0.488845
O39   O     O_R   0.555010 0.964150 0.055100 -0.488995
O40   O     O_R   0.993040 0.535870 0.931160 -0.484012
O41   O     O_R   0.993040 0.464130 0.931160 -0.483965
O42   O     O_R   0.493040 0.035870 0.931160 -0.483964
O43   O     O_R   0.493040 0.964130 0.931160 -0.484013
O44   O     O_R   0.932590 0.535860 0.932690 -0.481829
O45   O     O_R   0.932590 0.464140 0.932690 -0.481825
O46   O     O_R   0.432590 0.035860 0.932690 -0.481826
O47   O     O_R   0.432590 0.964140 0.932690 -0.481829
O48   O     O_R   0.463790 0.000000 0.401850 -0.481125

loop_
_geom_bond_atom_site_label_1
_geom_bond_atom_site_label_2
_ccdc_geom_bond_type
C21   C26   T    
C60   C79   S    
C17   C69   S    
C9    C98   S    
C75   O7    A    
Cu5   O23   S    
C44   O22   A    
C8    C96   S    
C84   C87   T    
C57   C66   S    
C97   F3    S    
C79   C82   T    
C104  C106  S    
C78   C109  S    
Cu6   O25   S    
C91   H2    S    
C73   O5    A    
C85   C86   T    
C105  C107  S    
C46   C49   T    
C1    C18   S    
C60   O32   A    
C106  C108  T    
Cu1   O12   S    
C64   C93   S    
C38   C42   T    
Cu5   Cu7   S    
C72   C92   S    
C86   C88   S    
C9    H4    S    
C15   N3    T    
C65   O42   A    
C80   H1    S    
C29   C33   T    
C40   C73   S    
C77   O16   A    
C3    C91   S    
C58   C96   S    
C24   C29   S    
Cu11  O47   S    
C36   O23   A    
C59   C67   S    
C41   C74   S    
Cu5   O34   S    
Cu8   O40   S    
Cu9   O37   S    
C20   C24   T    
C7    C17   T    
C4    C102  T    
Cu3   O16   S    
C50   C52   S    
Cu6   O18   S    
C61   O35   A    
Cu1   O22   S    
C64   O40   A    
C93   C99   T    
C71   O3    A    
C58   C80   S    
C68   O29   A    
C72   O2    A    
C74   O6    A    
C69   C91   S    
Cu5   O24   S    
C107  C109  T    
Cu12  O6    S    
C25   O19   A    
C45   O24   A    
Cu2   O15   S    
C2    C11   S    
C71   O48   A    
Cu7   O26   S    
C12   C110  S    
Cu4   O13   S    
C81   C83   T    
C52   C54   T    
C78   O15   A    
C53   C55   S    
Cu5   O28   S    
C101  C105  T    
C14   C111  S    
C96   C111  S    
C54   C56   S    
C60   O31   A    
C30   C34   T    
C27   C31   T    
C34   C39   S    
C28   C32   T    
Cu11  O43   S    
C97   C112  S    
Cu8   O36   S    
Cu9   O41   S    
C13   C58   S    
C4    C44   S    
C49   C51   S    
Cu10  O38   S    
C62   O37   A    
C66   O44   A    
C100  C103  S    
C8    C95   S    
C73   O9    A    
C51   C53   T    
Cu2   O8    S    
C91   C112  S    
C19   C23   T    
C58   C95   S    
C46   C68   S    
C67   O46   A    
Cu1   O27   S    
C95   F1    S    
Cu11  O39   S    
Cu3   O10   S    
C94   C100  T    
Cu7   O21   S    
Cu10  O33   S    
C8    H3    S    
C42   C75   S    
C96   F2    S    
Cu6   O19   S    
C32   C37   S    
C89   C92   T    
C63   O39   A    
C48   C50   T    
C9    C11   S    
Cu7   O30   S    
C7    C63   S    
Cu4   O17   S    
C67   O47   A    
C76   O8    A    
C65   C94   S    
C99   C101  S    
C66   O45   A    
C88   C90   T    
C26   C30   S    
C82   C84   S    
C12   N1    T    
C55   C57   T    
C31   C35   S    
Cu12  O5    S    
C2    C5    T    
C23   C28   S    
C44   O25   A    
C72   O4    A    
C16   N4    T    
C47   O34   A    
C1    O1    A    
Cu8   Cu9   S    
C36   O20   A    
C63   O38   A    
Cu9   O45   S    
C47   O21   A    
C68   O27   A    
C43   C76   S    
Cu10  O42   S    
Cu9   O32   S    
Cu12  O14   S    
C9    C97   S    
Cu3   Cu12  S    
Cu6   O29   S    
C83   C85   S    
C11   C112  S    
C18   C22   T    
C65   O43   A    
C15   C112  S    
C74   O10   A    
C77   C108  S    
C48   C70   S    
C95   C110  S    
C70   O28   A    
C77   O14   A    
Cu4   O11   S    
Cu2   Cu4   S    
C62   O36   A    
C78   O17   A    
C10   C111  S    
Cu12  O48   S    
C14   N2    T    
Cu3   O9    S    
C45   O26   A    
C33   C38   S    
C56   C59   T    
C22   C27   S    
C75   O11   A    
Cu2   O7    S    
C6    C62   S    
C87   C89   S    
C35   C40   T    
Cu8   O44   S    
C61   C81   S    
C69   C98   S    
C6    C13   T    
C64   O41   A    
C3    C98   S    
C71   C90   S    
C5    C45   S    
C76   O13   A    
C80   C111  S    
C98   F4    S    
C10   C110  S    
C25   O12   A    
Cu1   O1    S    
Cu2   O2    S    
C37   C41   T    
C1    O18   A    
C19   C25   S    
C70   O30   A    
C3    C11   S    
Cu1   Cu6   S    
C20   C36   S    
Cu7   O20   S    
Cu10  O46   S    
C61   O33   A    
C39   C43   T    
C8    C10   S    
C80   C110  S    
C103  C104  T    
Cu4   O4    S    
Cu10  Cu11  S    
Cu3   O3    S    
C10   C102  S    
Cu11  O35   S    
C3    C16   S    
Cu8   O31   S    
C21   C47   S    
C69   C97   S    
