data_mof_unit_pretest_676.cif
_audit_creation_date              2013-03-05T15:43:51-0500
_audit_creation_method            fapswitch 2.2
_symmetry_space_group_name_H-M    P1
_symmetry_Int_Tables_number       1
_space_group_crystal_system       triclinic
_cell_length_a                    13.533358
_cell_length_b                    13.548025
_cell_length_c                    27.561845
_cell_angle_alpha                 90.333559
_cell_angle_beta                  89.801055
_cell_angle_gamma                 60.083297
_cell_volume                      4379.91097756

loop_
_atom_site_label
_atom_site_type_symbol
_atom_site_description
_atom_site_fract_x
_atom_site_fract_y
_atom_site_fract_z
_atom_type_partial_charge
O1    O     O_R   0.301710 0.195650 0.554160 -0.484681
O2    O     O_R   0.522390 0.158990 0.550460 -0.487814
C1    C     C_R   0.619521 0.100414 0.570358 0.557275
O3    O     O_R   0.694390 0.003530 0.554040 -0.470867
O4    O     O_R   0.657700 0.819660 0.549320 -0.491465
C2    C     C_R   0.598427 0.781069 0.569093 0.551427
O5    O     O_R   0.501930 0.803280 0.552920 -0.473864
O6    O     O_R   0.318170 0.023580 0.549580 -0.483092
C3    C     C_R   0.279180 0.121078 0.569902 0.555062
O7    O     O_R   0.303010 0.193990 0.446760 -0.524938
O8    O     O_R   0.523600 0.157450 0.450900 -0.513454
C4    C     C_R   0.621765 0.099523 0.431205 0.573484
O9    O     O_R   0.695690 0.001860 0.446640 -0.423471
O10   O     O_R   0.658900 0.818120 0.449760 -0.515835
C5    C     C_R   0.604296 0.773035 0.431614 0.555946
O11   O     O_R   0.503220 0.801620 0.445520 -0.431167
O12   O     O_R   0.319370 0.022040 0.450020 -0.442538
C6    C     C_R   0.276158 0.121799 0.431502 0.555784
Cr1   Cr    Cr6+3 0.417550 0.169090 0.500530 1.100963
Cr2   Cr    Cr6+3 0.669180 0.913420 0.499920 1.140170
Cr3   Cr    Cr6+3 0.413260 0.917540 0.499520 1.184495
O13   O     O_3   0.499990 0.000010 0.499990 -0.312772
C7    C     C_3   0.756950 0.603910 0.737123 0.384918
C8    C     C_3   0.749102 0.691178 0.775786 -0.151066
H1    H     H_    0.821659 0.699806 0.789224 0.223170
H2    H     H_    0.620748 0.873944 0.742737 0.248356
C9    C     C_1   0.696627 0.609278 0.900923 0.083990
C10   C     C_1   0.625179 0.739190 0.617601 0.082048
C11   C     C_3   0.681891 0.573595 0.768815 0.463635
C12   C     C_3   0.673770 0.660003 0.807178 -0.085434
C13   C     C_3   0.574718 0.666602 0.744083 0.415717
C14   C     C_3   0.649518 0.697228 0.712457 -0.063030
C15   C     C_3   0.566898 0.751984 0.782609 0.197803
C16   C     C_3   0.639350 0.786284 0.750911 -0.139873
C17   C     C_1   0.685979 0.636592 0.859069 0.098441
C18   C     C_1   0.638566 0.716386 0.660080 0.107028
C19   C     C_3   0.123696 0.109172 0.740625 0.161117
C20   C     C_3   0.216071 0.049622 0.779611 -0.070306
H3    H     H_    0.241807 0.964247 0.793918 0.229265
C21   C     C_1   0.101863 0.199303 0.902991 0.070294
C22   C     C_1   0.237638 0.134365 0.618626 0.074446
C23   C     C_3   0.068919 0.219222 0.770216 0.185901
C24   C     C_3   0.160324 0.162524 0.809222 -0.071089
C25   C     C_3   0.140684 0.261248 0.743337 -0.152621
C26   C     C_3   0.196031 0.148938 0.713677 -0.015695
C27   C     C_3   0.234664 0.203165 0.782693 -0.059740
C28   C     C_3   0.288936 0.091361 0.752356 0.443339
C29   C     C_1   0.133818 0.177839 0.861363 0.069619
C30   C     C_1   0.215314 0.141653 0.661232 0.083540
H4    H     H_    0.281253 0.241208 0.800609 0.232215
H5    H     H_    0.107922 0.348156 0.728667 0.216805
C31   C     C_3   0.679945 0.243416 0.736428 0.427836
C32   C     C_3   0.580312 0.286315 0.773268 0.407121
C33   C     C_1   0.691488 0.210922 0.903047 0.086819
C34   C     C_1   0.632132 0.129669 0.618979 0.098146
C35   C     C_3   0.758433 0.149301 0.772128 0.385660
C36   C     C_3   0.658596 0.192186 0.808958 -0.102399
C37   C     C_3   0.721785 0.068379 0.749764 0.106409
C38   C     C_3   0.644139 0.161829 0.713768 -0.110258
C39   C     C_3   0.622644 0.111331 0.786241 0.099810
C40   C     C_3   0.544013 0.204844 0.750526 0.342158
C41   C     C_1   0.672840 0.202627 0.861000 0.125516
C42   C     C_1   0.638151 0.146779 0.661459 0.132303
C43   C     C_R   0.736137 0.710279 0.361569 -0.116767
C44   C     C_R   0.753241 0.680935 0.312651 0.023977
C45   C     C_R   0.764372 0.653034 0.211460 -0.040934
C46   C     C_R   0.839869 0.679258 0.235213 -0.039299
C47   C     C_R   0.833058 0.695248 0.285345 0.401589
C48   C     C_R   0.768918 0.639024 0.160850 0.309630
H6    H     H_    0.781264 0.749205 0.377947 0.226139
H7    H     H_    0.902223 0.690575 0.214965 0.201411
C49   C     C_R   0.689091 0.617925 0.137583 0.008949
C50   C     C_R   0.599726 0.643711 0.368397 0.213609
C51   C     C_R   0.608712 0.621267 0.317817 -0.057421
C52   C     C_R   0.682727 0.645608 0.289884 -0.071578
C53   C     C_R   0.541610 0.583152 0.293437 0.223732
C54   C     C_R   0.534957 0.588003 0.242933 0.422999
C55   C     C_R   0.605237 0.615976 0.215654 -0.010670
C56   C     C_R   0.684823 0.637180 0.239010 -0.129493
C57   C     C_R   0.601129 0.617272 0.165212 0.356845
C58   C     C_R   0.651701 0.702324 0.387902 -0.029723
C59   C     C_R   0.186500 0.071289 0.362041 0.187006
C60   C     C_R   0.160828 0.084695 0.311951 0.001311
C61   C     C_R   0.124864 0.106901 0.210839 0.019244
C62   C     C_R   0.125480 0.016655 0.235490 -0.122489
C63   C     C_R   0.142087 0.006159 0.285527 -0.054196
C64   C     C_R   0.104527 0.119965 0.160969 -0.118778
H8    H     H_    0.087562 0.060330 0.141441 0.134479
H9    H     H_    0.112815 0.954154 0.216058 0.140227
H10   H     H_    0.140608 0.935693 0.302938 0.243353
C65   C     C_R   0.097819 0.214363 0.137060 0.003216
C66   C     C_R   0.190885 0.248948 0.362011 -0.128835
C67   C     C_R   0.166217 0.263100 0.312927 0.000688
C68   C     C_R   0.155694 0.178564 0.287284 -0.026590
C69   C     C_R   0.157577 0.357917 0.288595 0.375102
C70   C     C_R   0.144236 0.366012 0.238557 -0.093895
C71   C     C_R   0.135882 0.281607 0.212506 -0.050555
C72   C     C_R   0.139259 0.188691 0.236852 0.048888
C73   C     C_R   0.118380 0.292008 0.162724 -0.116984
C74   C     C_R   0.210970 0.149328 0.385855 -0.026791
H11   H     H_    0.112602 0.365634 0.144693 0.163948
H12   H     H_    0.139006 0.439076 0.220263 0.158827
H13   H     H_    0.203969 0.312036 0.380728 0.217677
C75   C     C_R   0.544436 0.217237 0.358009 -0.135936
C76   C     C_R   0.551635 0.231025 0.308375 0.011737
C77   C     C_R   0.568872 0.260396 0.208571 0.034560
C78   C     C_R   0.466490 0.330122 0.233397 -0.056717
C79   C     C_R   0.457254 0.313792 0.282822 -0.046187
C80   C     C_R   0.583205 0.280156 0.159783 -0.101405
H14   H     H_    0.517199 0.353739 0.141197 0.172394
H15   H     H_    0.463356 0.268447 0.376441 0.176225
H16   H     H_    0.394040 0.397388 0.214740 0.177813
H17   H     H_    0.377621 0.368370 0.301495 0.214979
C81   C     C_R   0.685949 0.206440 0.135943 -0.000516
C82   C     C_R   0.743893 0.067770 0.359203 0.420821
C83   C     C_R   0.750833 0.076322 0.309083 0.022468
C84   C     C_R   0.654394 0.159408 0.283743 -0.056011
C85   C     C_R   0.850661 0.001197 0.283387 0.444739
C86   C     C_R   0.854294 0.008940 0.233371 -0.115041
C87   C     C_R   0.761203 0.094939 0.208783 -0.055490
C88   C     C_R   0.661097 0.171250 0.233651 0.041418
C89   C     C_R   0.769816 0.109019 0.159883 -0.109962
C90   C     C_R   0.639249 0.133768 0.383276 -0.005937
H18   H     H_    0.848530 0.048399 0.141812 0.151081
H19   H     H_    0.931486 0.949810 0.214004 0.137904
O14   O     O_R   0.818720 0.150820 0.967160 -0.484475
O15   O     O_R   0.006410 0.181720 0.970200 -0.482731
C91   C     C_R   0.049691 0.236230 0.950009 0.555530
O16   O     O_R   0.027890 0.334070 0.964920 -0.496426
O17   O     O_R   0.809600 0.521790 0.967960 -0.495154
C92   C     C_R   0.711590 0.563129 0.948467 0.553325
O18   O     O_R   0.635520 0.542770 0.964420 -0.482001
O19   O     O_R   0.665950 0.325030 0.970100 -0.490932
C93   C     C_R   0.722534 0.226158 0.950918 0.551162
O20   O     O_R   0.816620 0.158530 0.074540 -0.524789
O21   O     O_R   0.004460 0.188870 0.069750 -0.507405
C94   C     C_R   0.046324 0.246105 0.088915 0.541411
O22   O     O_R   0.025800 0.341780 0.072300 -0.497165
O23   O     O_R   0.807650 0.528950 0.067500 -0.447779
C95   C     C_R   0.708613 0.571414 0.087757 0.586643
O24   O     O_R   0.633420 0.550490 0.071810 -0.440852
O25   O     O_R   0.664000 0.332180 0.069640 -0.483488
C96   C     C_R   0.719249 0.233212 0.089379 0.543030
Cr4   Cr    Cr6+3 0.909170 0.177380 0.020380 1.071179
Cr5   Cr    Cr6+3 0.912710 0.429210 0.018220 1.110807
Cr6   Cr    Cr6+3 0.657170 0.432570 0.019030 1.119943
O26   O     O_3   0.826350 0.346390 0.019210 -0.288678
N1    N     N_R   0.946944 0.288638 0.777074 0.165953
O27   O     O_R   0.882791 0.324563 0.739014 -0.099516
O28   O     O_R   0.901573 0.312418 0.820260 -0.278716
F1    F     F_    0.507313 0.399159 0.785435 -0.471506
F2    F     F_    0.705943 0.312658 0.709166 -0.461121
F3    F     F_    0.433712 0.233524 0.738932 -0.556112
N2    N     N_R   0.589105 0.043874 0.815548 0.140331
O29   O     O_R   0.666063 0.942514 0.828980 -0.289808
O30   O     O_R   0.493104 0.095914 0.839336 -0.260420
N3    N     N_R   0.800329 0.949037 0.738100 0.137727
O31   O     O_R   0.869901 0.882164 0.770925 -0.213157
O32   O     O_R   0.803376 0.909318 0.694725 -0.297989
F4    F     F_    0.868905 0.119663 0.783802 -0.506816
F5    F     F_    0.851704 0.643674 0.134579 -0.623616
F6    F     F_    0.855754 0.528427 0.712685 -0.549115
F7    F     F_    0.903664 0.726023 0.307074 -0.531267
F8    F     F_    0.514781 0.610572 0.143184 -0.544643
F9    F     F_    0.465070 0.557054 0.220582 -0.557176
N4    N     N_R   0.481813 0.536648 0.318744 0.128209
O33   O     O_R   0.374148 0.574739 0.310560 -0.202530
O34   O     O_R   0.538447 0.446229 0.345039 -0.306862
N5    N     N_R   0.536859 0.611535 0.400412 0.128628
O35   O     O_R   0.589362 0.543856 0.436360 -0.271311
O36   O     O_R   0.426053 0.666893 0.400175 -0.180218
N6    N     N_R   0.188955 0.979205 0.388429 0.098322
O37   O     O_R   0.257700 0.874447 0.375194 -0.254340
O38   O     O_R   0.127725 0.999827 0.427658 -0.239055
F10   F     F_    0.163076 0.442299 0.313107 -0.590256
N7    N     N_R   0.464433 0.824777 0.810598 0.111506
O39   O     O_R   0.400995 0.782927 0.824536 -0.262147
O40   O     O_R   0.458207 0.910517 0.834574 -0.239176
F11   F     F_    0.944235 0.918971 0.306111 -0.501340
F12   F     F_    0.836988 0.991139 0.384235 -0.496460
F13   F     F_    0.484747 0.654676 0.727693 -0.483816
F14   F     F_    0.694959 0.468774 0.780105 -0.467027
N8    N     N_R   0.062406 0.059232 0.717111 0.146176
O41   O     O_R   0.083891 0.957498 0.728628 -0.194185
O42   O     O_R   0.989536 0.114131 0.683032 -0.217749
F15   F     F_    0.403768 0.026083 0.741698 -0.571898

loop_
_geom_bond_atom_site_label_1
_geom_bond_atom_site_label_2
_geom_bond_distance
_ccdc_geom_bond_type
C64   H8    1.084426 S    
C7    C11   1.541970 S    
C67   C68   1.409073 A    
C64   C65   1.404471 A    
C9    C92   1.426231 S    
C78   H16   1.083504 S    
O25   Cr6   1.923984 S    
C69   C70   1.389384 A    
C61   C64   1.397578 A    
C23   N1    1.446493 S    
C91   O16   1.271107 A    
C71   C72   1.410568 A    
C36   C41   1.463340 S    
C5    C58   1.465942 S    
C75   C90   1.406502 A    
C62   C63   1.394707 A    
C35   C36   1.547280 S    
C45   C56   1.417256 A    
O8    Cr1   1.927156 S    
N3    O31   1.300168 A    
C51   C53   1.418028 A    
C12   C17   1.458795 S    
C14   C18   1.463149 S    
C66   C67   1.385903 A    
C19   C20   1.543291 S    
C48   F5    1.359704 S    
C70   H12   1.084095 S    
N8    O42   1.300343 A    
O20   Cr4   2.042751 S    
O4    C2    1.277668 A    
C55   C57   1.391425 A    
C45   C48   1.403663 A    
C77   C78   1.400245 A    
C68   C72   1.405093 A    
O22   Cr5   2.048232 S    
C37   C39   1.534471 S    
C82   C83   1.393686 A    
C21   C91   1.435924 S    
C83   C84   1.417159 A    
N5    O35   1.301119 A    
C22   C30   1.202683 T    
C19   C23   1.522114 S    
C15   N7    1.452664 S    
C69   F10   1.358351 S    
C85   C86   1.385698 A    
C57   F8    1.361078 S    
C84   C88   1.398690 A    
C66   H13   1.083738 S    
C71   C73   1.389160 A    
C65   C94   1.464772 S    
C32   C40   1.545142 S    
C61   C62   1.398610 A    
H2    C16   1.108986 S    
C2    C10   1.431022 S    
C87   C89   1.374969 A    
O6    C3    1.277124 A    
C34   C42   1.203127 T    
C7    C8    1.550475 S    
C13   C15   1.529582 S    
C8    H1    1.109754 S    
C53   N4    1.431114 S    
C43   H6    1.084090 S    
C24   C29   1.468222 S    
O16   Cr5   2.051148 S    
C82   F12   1.360445 S    
O9    Cr2   2.041194 S    
C7    F6    1.381735 S    
C85   F11   1.357722 S    
N7    O40   1.298532 A    
C45   C46   1.400985 A    
N2    O30   1.299982 A    
N3    O32   1.300188 A    
Cr3   O13   1.983504 S    
C13   F13   1.382738 S    
O17   Cr5   1.930589 S    
N4    O34   1.300380 A    
N5    O36   1.299829 A    
C76   C84   1.405759 A    
C23   C25   1.538766 S    
Cr4   O26   1.985300 S    
C50   C58   1.403264 A    
C75   C76   1.391408 A    
Cr5   O26   1.983407 S    
C33   C93   1.430794 S    
C25   C27   1.560349 S    
C15   C16   1.547220 S    
C39   N2    1.453801 S    
C26   C28   1.538364 S    
C50   C51   1.416925 A    
C76   C79   1.404151 A    
C59   N6    1.433813 S    
O1    Cr1   2.046240 S    
C38   C40   1.548570 S    
C11   F14   1.378356 S    
C46   C47   1.392950 A    
O10   Cr2   1.938402 S    
Cr1   O13   1.985576 S    
C82   C90   1.403127 A    
C53   C54   1.395032 A    
C63   H10   1.080019 S    
O4    Cr2   1.925373 S    
C62   H9    1.083235 S    
C55   C56   1.402962 A    
C36   C39   1.534445 S    
C33   C41   1.203396 T    
C9    C17   1.200564 T    
C37   C38   1.544742 S    
C54   C55   1.404081 A    
C60   C68   1.416553 A    
C6    C74   1.478244 S    
C8    C16   1.563575 S    
C49   C57   1.414706 A    
C40   F3    1.381149 S    
C39   C40   1.543848 S    
C14   C16   1.554501 S    
C79   H17   1.081624 S    
C48   C49   1.403836 A    
N8    O41   1.300382 A    
C11   C12   1.535247 S    
C31   C38   1.541096 S    
O19   C93   1.275149 A    
C13   C14   1.540701 S    
C59   C74   1.414568 A    
C26   C30   1.461927 S    
O7    Cr1   2.052593 S    
C31   F2    1.379856 S    
C44   C47   1.405650 A    
C70   C71   1.398548 A    
O10   C5    1.272232 A    
O12   C6    1.284860 A    
N2    O29   1.299815 A    
O1    C3    1.270192 A    
C31   C32   1.545581 S    
C95   O24   1.264318 A    
C28   F15   1.380723 S    
O14   C93   1.273083 A    
C20   C28   1.553224 S    
O24   Cr6   2.056516 S    
C83   C85   1.405727 A    
C80   C81   1.401221 A    
C25   H5    1.110155 S    
N7    O39   1.300722 A    
C73   H11   1.084578 S    
Cr2   O13   1.984839 S    
N4    O33   1.301478 A    
C23   C24   1.532025 S    
C78   C79   1.396490 A    
C19   C26   1.525107 S    
O15   C91   1.277571 A    
C86   H19   1.083686 S    
C89   H18   1.084552 S    
C87   C88   1.400797 A    
C66   C74   1.404626 A    
Cr6   O26   1.984700 S    
C47   F7    1.357951 S    
C21   C29   1.206330 T    
C27   C28   1.550551 S    
O23   Cr5   1.934201 S    
C32   C36   1.546126 S    
C12   C15   1.523860 S    
O2    Cr1   1.935909 S    
C11   C13   1.532955 S    
C38   C42   1.463093 S    
C25   C26   1.545627 S    
N1    O28   1.300288 A    
O21   C94   1.279374 A    
C37   N3    1.457640 S    
O6    Cr3   1.934982 S    
C75   H15   1.084490 S    
C86   C87   1.398182 A    
O11   Cr3   2.053488 S    
C2    O5    1.268190 A    
O3    Cr2   2.056595 S    
C3    C22   1.429307 S    
C19   N8    1.457476 S    
C94   O22   1.271097 A    
C27   H4    1.109229 S    
C54   F9    1.358853 S    
C1    C34   1.430015 S    
C44   C52   1.410581 A    
C35   F4    1.380572 S    
C61   C72   1.409575 A    
C7    C14   1.535512 S    
O2    C1    1.275933 A    
O18   Cr6   2.042853 S    
C20   C24   1.550818 S    
O21   Cr4   1.936190 S    
O5    Cr3   2.046551 S    
C80   H14   1.083990 S    
C43   C44   1.388962 A    
O23   C95   1.288809 A    
C20   H3    1.104125 S    
C4    C90   1.459730 S    
C52   C56   1.405196 A    
O7    C6    1.271319 A    
C5    O11   1.278373 A    
C77   C88   1.416463 A    
O14   Cr4   2.055525 S    
O20   C96   1.260554 A    
N6    O38   1.301204 A    
C35   C37   1.537694 S    
O17   C92   1.276369 A    
C46   H7    1.083441 S    
O15   Cr4   1.927068 S    
C81   C96   1.464995 S    
C92   O18   1.269161 A    
C24   C27   1.549881 S    
C8    C12   1.547258 S    
C43   C58   1.400769 A    
N6    O37   1.299018 A    
C81   C89   1.409497 A    
C31   C35   1.546998 S    
C49   C95   1.474490 S    
C60   C63   1.410068 A    
C51   C52   1.425444 A    
C10   C18   1.203697 T    
C67   C69   1.405100 A    
C59   C60   1.415274 A    
C32   F1    1.382357 S    
O25   C96   1.290021 A    
O19   Cr6   1.938787 S    
C4    O9    1.273454 A    
C65   C73   1.403237 A    
C50   N5    1.435878 S    
N1    O27   1.296852 A    
C1    O3    1.270887 A    
O8    C4    1.274963 A    
C77   C80   1.404146 A    
O12   Cr3   1.928837 S    
