data_mof_unit_pretest_1514.cif
_audit_creation_date              2012-12-10T18:55:35-0500
_audit_creation_method            fapswitch 2.2
_symmetry_space_group_name_H-M    P1
_symmetry_Int_Tables_number       1
_space_group_crystal_system       monoclinic
_cell_length_a                    30.272936
_cell_length_b                    30.272938
_cell_length_c                    23.528043
_cell_angle_alpha                 90.0
_cell_angle_beta                  89.999976
_cell_angle_gamma                 90.0
_cell_volume                      21562.2918206

loop_
_atom_site_label
_atom_site_type_symbol
_atom_type_description
_atom_site_fract_x
_atom_site_fract_y
_atom_site_fract_z
_atom_type_partial_charge
C1    C     C_R   0.586290 0.000000 0.500000 0.875384
C2    C     C_R   0.991114 0.842481 0.550385 -0.261511
C3    C     C_R   0.461016 0.842631 0.987527 -0.195395
C4    C     C_R   0.157369 0.538984 0.012473 -0.195396
C5    C     C_R   0.538984 0.842631 0.012473 -0.195396
C6    C     C_R   0.842631 0.461016 0.012476 -0.195396
C7    C     C_R   0.461016 0.157369 0.012474 -0.195396
C8    C     C_R   0.634284 0.000000 0.500000 -0.044382
C9    C     C_R   0.000000 0.634284 0.500000 -0.044385
C10   C     C_R   0.365716 1.000000 0.500000 -0.044383
C11   C     C_R   0.000000 0.365716 0.500000 -0.044386
C12   C     C_R   0.134284 0.500000 0.000000 -0.044386
C13   C     C_R   0.157519 0.991123 0.550387 -0.261511
C14   C     C_R   0.500000 0.134284 1.000000 -0.044385
C15   C     C_R   0.865716 0.500000 1.000000 -0.044384
C16   C     C_R   0.500000 0.865716 0.000000 -0.044386
C17   C     C_R   0.725959 1.000000 0.500000 0.212605
C18   C     C_R   0.000000 0.725959 0.500000 0.212604
C19   C     C_R   0.274041 1.000000 0.500000 0.212607
C20   C     C_R   1.000000 0.274041 0.500000 0.212607
C21   C     C_R   0.225959 0.500000 0.000000 0.212608
C22   C     C_R   0.500000 0.225959 0.000000 0.212608
C23   C     C_R   0.774041 0.500000 1.000000 0.212608
C24   C     C_R   0.008881 0.157519 0.550386 -0.261511
C25   C     C_R   0.500000 0.774041 0.000000 0.212607
C26   C     C_R   0.796684 0.009092 0.550376 0.596629
C27   C     C_R   0.990898 0.796684 0.550374 0.596630
C28   C     C_R   0.203316 0.990907 0.550376 0.596630
C29   C     C_R   0.009097 0.203316 0.550375 0.596631
C30   C     C_R   0.796684 0.990908 0.449624 0.596630
C31   C     C_R   0.990903 0.203316 0.449625 0.596631
C32   C     C_R   0.203316 0.009092 0.449624 0.596631
C33   C     C_R   0.009102 0.796684 0.449626 0.596630
C34   C     C_R   0.296684 0.509097 0.050375 0.596631
C35   C     C_R   0.842481 0.991123 0.449613 -0.261511
C36   C     C_R   0.490903 0.296684 0.050375 0.596631
C37   C     C_R   0.703316 0.490905 0.050375 0.596630
C38   C     C_R   0.509098 0.703315 0.050374 0.596630
C39   C     C_R   0.296684 0.490902 0.949625 0.596631
C40   C     C_R   0.490902 0.703315 0.949625 0.596630
C41   C     C_R   0.703316 0.509095 0.949624 0.596630
C42   C     C_R   0.509097 0.296684 0.949625 0.596630
C43   C     C_R   0.991118 0.157519 0.449614 -0.261512
C44   C     C_R   0.157519 0.008877 0.449613 -0.261512
C45   C     C_R   0.008886 0.842481 0.449615 -0.261511
C46   C     C_R   0.342481 0.508882 0.050386 -0.261512
C47   C     C_R   0.491119 0.342481 0.050386 -0.261512
C48   C     C_R   0.657519 0.491121 0.050387 -0.261512
C49   C     C_R   0.000000 0.586290 0.500000 0.875387
C50   C     C_R   0.508882 0.657518 0.050386 -0.261512
C51   C     C_R   0.342481 0.491118 0.949614 -0.261512
C52   C     C_R   0.491118 0.657518 0.949614 -0.261512
C53   C     C_R   0.657519 0.508879 0.949613 -0.261512
C54   C     C_R   0.508881 0.342481 0.949614 -0.261512
C55   C     C_R   0.865534 1.000000 0.500000 -0.227045
C56   C     C_R   1.000000 0.865534 0.500000 -0.227041
C57   C     C_R   0.134466 0.000000 0.500000 -0.227044
C58   C     C_R   1.000000 0.134466 0.500000 -0.227043
C59   C     C_R   0.365534 0.500000 0.000000 -0.227043
C60   C     C_R   0.413710 1.000000 0.500000 0.875385
C61   C     C_R   0.500000 0.365534 0.000000 -0.227044
C62   C     C_R   0.634466 0.500000 1.000000 -0.227044
C63   C     C_R   0.500000 0.634466 1.000000 -0.227043
C64   C     C_R   0.773795 1.000000 0.500000 -0.213054
C65   C     C_R   0.000000 0.773796 0.500000 -0.213057
C66   C     C_R   0.226204 1.000000 0.500000 -0.213056
C67   C     C_R   1.000000 0.226204 0.500000 -0.213056
C68   C     C_R   0.273796 0.500000 0.000000 -0.213057
C69   C     C_R   0.500000 0.273796 0.000000 -0.213055
C70   C     C_R   0.726204 0.500000 1.000000 -0.213057
C71   C     C_R   0.000000 0.413709 0.500000 0.875387
C72   C     C_R   0.500000 0.726204 0.000000 -0.213055
C73   C     C_R   1.000000 0.913509 0.500000 0.951120
C74   C     C_R   0.086491 0.000000 0.500000 0.951122
C75   C     C_R   0.000000 0.086491 0.500000 0.951121
C76   C     C_R   0.913509 1.000000 0.500000 0.951122
C77   C     C_R   0.500000 0.413509 0.000000 0.951122
C78   C     C_R   0.586491 0.500000 1.000000 0.951121
C79   C     C_R   0.500000 0.586491 0.000000 0.951121
C80   C     C_R   0.413509 0.500000 0.000000 0.951121
C81   C     C_R   0.500000 1.000000 0.609371 0.905094
C82   C     C_R   0.086290 0.500000 0.000000 0.875386
C83   C     C_R   1.000000 0.500000 0.609371 0.905095
C84   C     C_R   0.500000 0.000000 0.390629 0.905095
C85   C     C_R   0.000000 0.500000 0.390629 0.905095
C86   C     C_R   0.000000 0.500000 0.109371 0.905095
C87   C     C_R   0.500000 1.000000 0.109371 0.905095
C88   C     C_R   0.000000 0.500000 0.890629 0.905095
C89   C     C_R   0.500000 0.000000 0.890629 0.905095
C90   C     C_1   0.500000 1.000000 0.669583 -0.165865
C91   C     C_1   1.000000 0.500000 0.669583 -0.165865
C92   C     C_1   0.500000 0.000000 0.330417 -0.165865
C93   C     C_R   0.500000 0.086290 1.000000 0.875386
C94   C     C_1   0.000000 0.500000 0.330417 -0.165865
C95   C     C_1   0.000000 0.500000 0.169583 -0.165865
C96   C     C_1   0.500000 1.000000 0.169583 -0.165865
C97   C     C_1   1.000000 0.500000 0.830417 -0.165865
C98   C     C_1   0.500000 1.000000 0.830417 -0.165864
C99   C     C_1   0.500000 1.000000 0.720365 0.027061
C100  C     C_1   1.000000 0.500000 0.720365 0.027061
C101  C     C_1   0.500000 0.000000 0.279635 0.027061
C102  C     C_1   0.000000 0.500000 0.279635 0.027061
C103  C     C_1   0.000000 0.500000 0.220365 0.027061
C104  C     C_R   0.913709 0.500000 0.000000 0.875386
C105  C     C_1   0.500000 0.000000 0.220365 0.027061
C106  C     C_1   1.000000 0.500000 0.779635 0.027061
C107  C     C_1   0.500000 1.000000 0.779635 0.027061
C108  C     C_R   0.703159 0.961100 0.487278 -0.074341
C109  C     C_R   0.038902 0.703159 0.487289 -0.074343
C110  C     C_R   0.296841 0.038900 0.487280 -0.074343
C111  C     C_R   0.961099 0.296841 0.487285 -0.074343
C112  C     C_R   0.703159 0.038900 0.512722 -0.074342
C113  C     C_R   0.038901 0.296841 0.512714 -0.074343
C114  C     C_R   0.296841 0.961100 0.512719 -0.074343
C115  C     C_R   0.500000 0.913709 0.000000 0.875387
C116  C     C_R   0.961098 0.703159 0.512711 -0.074343
C117  C     C_R   0.203159 0.461099 0.987287 -0.074344
C118  C     C_R   0.538901 0.203159 0.987286 -0.074344
C119  C     C_R   0.796841 0.538901 0.987283 -0.074343
C120  C     C_R   0.461099 0.796841 0.987286 -0.074343
C121  C     C_R   0.203159 0.538901 0.012713 -0.074343
C122  C     C_R   0.538901 0.796841 0.012714 -0.074344
C123  C     C_R   0.796841 0.461099 0.012716 -0.074344
C124  C     C_R   0.461099 0.203159 0.012714 -0.074343
C125  C     C_R   0.657369 0.961017 0.487519 -0.195398
C126  C     C_R   0.842481 0.008877 0.550388 -0.261511
C127  C     C_R   0.038985 0.657369 0.487530 -0.195397
C128  C     C_R   0.342631 0.038983 0.487521 -0.195397
C129  C     C_R   0.961016 0.342631 0.487526 -0.195395
C130  C     C_R   0.657369 0.038982 0.512481 -0.195398
C131  C     C_R   0.038984 0.342631 0.512474 -0.195396
C132  C     C_R   0.342631 0.961017 0.512479 -0.195395
C133  C     C_R   0.961015 0.657369 0.512470 -0.195396
C134  C     C_R   0.157369 0.461016 0.987527 -0.195396
C135  C     C_R   0.538984 0.157369 0.987526 -0.195397
C136  C     C_R   0.842631 0.538983 0.987524 -0.195396
F1    F     F_    0.774670 0.017472 0.599497 -0.646317
F2    F     F_    0.482519 0.274670 0.099494 -0.646317
F3    F     F_    0.725330 0.482523 0.099496 -0.646315
F4    F     F_    0.517483 0.725330 0.099494 -0.646316
F5    F     F_    0.274670 0.482517 0.900506 -0.646316
F6    F     F_    0.482517 0.725330 0.900506 -0.646316
F7    F     F_    0.725330 0.517477 0.900504 -0.646315
F8    F     F_    0.517481 0.274670 0.900506 -0.646316
F9    F     F_    0.982509 0.774670 0.599492 -0.646316
F10   F     F_    0.225330 0.982527 0.599496 -0.646316
F11   F     F_    0.017482 0.225330 0.599494 -0.646316
F12   F     F_    0.774670 0.982528 0.400503 -0.646317
F13   F     F_    0.982518 0.225330 0.400506 -0.646316
F14   F     F_    0.225330 0.017473 0.400503 -0.646316
F15   F     F_    0.017491 0.774670 0.400508 -0.646316
F16   F     F_    0.274670 0.517483 0.099494 -0.646316
H1    H     H_    0.720851 0.930910 0.477587 0.155393
H2    H     H_    0.569093 0.220851 0.977600 0.155391
H3    H     H_    0.779148 0.569092 0.977596 0.155391
H4    H     H_    0.430907 0.779148 0.977602 0.155391
H5    H     H_    0.220852 0.569093 0.022398 0.155391
H6    H     H_    0.569093 0.779148 0.022398 0.155392
H7    H     H_    0.779148 0.430908 0.022403 0.155390
H8    H     H_    0.430908 0.220852 0.022399 0.155391
H9    H     H_    0.640107 0.930644 0.477587 0.168559
H10   H     H_    0.069360 0.640107 0.477606 0.168562
H11   H     H_    0.359893 0.069356 0.477590 0.168560
H12   H     H_    0.069095 0.720852 0.477607 0.155394
H13   H     H_    0.930642 0.359893 0.477600 0.168561
H14   H     H_    0.640107 0.069356 0.522413 0.168559
H15   H     H_    0.069358 0.359893 0.522400 0.168561
H16   H     H_    0.359893 0.930643 0.522410 0.168559
H17   H     H_    0.930640 0.640107 0.522394 0.168562
H18   H     H_    0.140107 0.430641 0.977601 0.168562
H19   H     H_    0.569358 0.140107 0.977600 0.168561
H20   H     H_    0.859893 0.569357 0.977596 0.168560
H21   H     H_    0.430642 0.859893 0.977601 0.168561
H22   H     H_    0.140107 0.569358 0.022398 0.168561
H23   H     H_    0.279149 0.069091 0.477591 0.155391
H24   H     H_    0.569358 0.859893 0.022399 0.168561
H25   H     H_    0.859893 0.430642 0.022404 0.168561
H26   H     H_    0.430642 0.140107 0.022400 0.168561
H27   H     H_    0.859834 0.015876 0.589631 0.203492
H28   H     H_    0.984107 0.859835 0.589627 0.203489
H29   H     H_    0.140165 0.984123 0.589631 0.203491
H30   H     H_    0.015884 0.140165 0.589629 0.203490
H31   H     H_    0.859834 0.984124 0.410369 0.203492
H32   H     H_    0.984116 0.140165 0.410371 0.203490
H33   H     H_    0.140166 0.015877 0.410369 0.203491
H34   H     H_    0.930907 0.279148 0.477600 0.155391
H35   H     H_    0.015893 0.859835 0.410373 0.203489
H36   H     H_    0.359835 0.515885 0.089629 0.203490
H37   H     H_    0.484116 0.359834 0.089629 0.203490
H38   H     H_    0.640165 0.484119 0.089630 0.203491
H39   H     H_    0.515886 0.640165 0.089628 0.203490
H40   H     H_    0.359835 0.484114 0.910371 0.203490
H41   H     H_    0.484114 0.640165 0.910371 0.203490
H42   H     H_    0.640165 0.515880 0.910370 0.203491
H43   H     H_    0.515884 0.359835 0.910371 0.203490
H44   H     H_    0.720851 0.069090 0.522412 0.155393
H45   H     H_    0.069093 0.279148 0.522399 0.155391
H46   H     H_    0.279148 0.930909 0.522409 0.155391
H47   H     H_    0.930905 0.720852 0.522393 0.155393
H48   H     H_    0.220852 0.430907 0.977602 0.155391
O1    O     O_R   0.565460 0.036980 0.500020 -0.622140
O2    O     O_R   0.463020 0.065460 0.000020 -0.622141
O3    O     O_R   0.934540 0.463020 0.000020 -0.622140
O4    O     O_R   0.536980 0.934540 0.000020 -0.622141
O5    O     O_R   0.065460 0.463020 0.999980 -0.622141
O6    O     O_R   0.463020 0.934540 0.999980 -0.622141
O7    O     O_R   0.934540 0.536980 0.999980 -0.622141
O8    O     O_R   0.536980 0.065460 0.999980 -0.622141
O9    O     O_R   0.499990 0.036980 0.582790 -0.608923
O10   O     O_R   0.963020 0.499990 0.582790 -0.608922
O11   O     O_R   0.500010 0.963020 0.582790 -0.608922
O12   O     O_R   0.963020 0.565460 0.500020 -0.622142
O13   O     O_R   0.036980 0.500010 0.582790 -0.608923
O14   O     O_R   0.499990 0.963020 0.417210 -0.608923
O15   O     O_R   0.963020 0.500010 0.417210 -0.608923
O16   O     O_R   0.500010 0.036980 0.417210 -0.608923
O17   O     O_R   0.036980 0.499990 0.417210 -0.608922
O18   O     O_R   0.999990 0.536980 0.082790 -0.608923
O19   O     O_R   0.463020 0.999990 0.082790 -0.608922
O20   O     O_R   0.000010 0.463020 0.082790 -0.608923
O21   O     O_R   0.536980 0.000010 0.082790 -0.608923
O22   O     O_R   0.999990 0.463020 0.917210 -0.608922
O23   O     O_R   0.434540 0.963020 0.500020 -0.622140
O24   O     O_R   0.463020 0.000010 0.917210 -0.608922
O25   O     O_R   0.000010 0.536980 0.917210 -0.608923
O26   O     O_R   0.536980 0.999990 0.917210 -0.608923
O27   O     O_R   0.999990 0.934570 0.546740 -0.623438
O28   O     O_R   0.065430 0.999990 0.546740 -0.623439
O29   O     O_R   0.000010 0.065430 0.546740 -0.623439
O30   O     O_R   0.934570 0.000010 0.546740 -0.623440
O31   O     O_R   0.999990 0.065430 0.453260 -0.623438
O32   O     O_R   0.065430 0.000010 0.453260 -0.623440
O33   O     O_R   0.000010 0.934570 0.453260 -0.623437
O34   O     O_R   0.036980 0.434540 0.500020 -0.622141
O35   O     O_R   0.934570 0.999990 0.453260 -0.623439
O36   O     O_R   0.499990 0.434570 0.046740 -0.623438
O37   O     O_R   0.565430 0.499990 0.046740 -0.623439
O38   O     O_R   0.500010 0.565430 0.046740 -0.623439
O39   O     O_R   0.434570 0.500010 0.046740 -0.623438
O40   O     O_R   0.499990 0.565430 0.953260 -0.623438
O41   O     O_R   0.565430 0.500010 0.953260 -0.623439
O42   O     O_R   0.500010 0.434570 0.953260 -0.623438
O43   O     O_R   0.434570 0.499990 0.953260 -0.623438
O44   O     O_R   0.565460 0.963020 0.499980 -0.622140
O45   O     O_R   0.963020 0.434540 0.499980 -0.622141
O46   O     O_R   0.434540 0.036980 0.499980 -0.622140
O47   O     O_R   0.036980 0.565460 0.499980 -0.622142
O48   O     O_R   0.065460 0.536980 0.000020 -0.622142
Zn1   Zn    Zn3+2 0.500000 0.049380 0.500000 0.997360
Zn2   Zn    Zn3+2 0.000000 0.000000 0.437580 0.995422
Zn3   Zn    Zn3+2 0.500000 0.500000 0.062420 0.995422
Zn4   Zn    Zn3+2 0.500000 0.500000 0.937580 0.995422
Zn5   Zn    Zn3+2 0.950620 0.500000 0.500000 0.997360
Zn6   Zn    Zn3+2 0.500000 0.950620 0.500000 0.997361
Zn7   Zn    Zn3+2 0.049380 0.500000 0.500000 0.997359
Zn8   Zn    Zn3+2 1.000000 0.549380 0.000000 0.997359
Zn9   Zn    Zn3+2 0.450620 0.000000 0.000000 0.997360
Zn10  Zn    Zn3+2 1.000000 0.450620 0.000000 0.997360
Zn11  Zn    Zn3+2 0.549380 0.000000 0.000000 0.997360
Zn12  Zn    Zn3+2 0.000000 1.000000 0.562420 0.995422

loop_
_geom_bond_atom_site_label_1
_geom_bond_atom_site_label_2
_ccdc_geom_bond_type
C39   C51   A    
C96   C105  T    
C60   O23   A    
C60   O46   A    
C50   C63   A    
C3    C16   A    
C40   F6    S    
C46   C59   A    
O14   Zn6   S    
C1    C8    S    
C33   C45   A    
C39   C68   A    
C20   C67   S    
O20   Zn10  S    
C18   C109  A    
O15   Zn5   S    
C89   O26   A    
C26   F1    S    
C1    O1    A    
O24   Zn9   S    
C89   O24   A    
C33   C65   A    
C16   C115  S    
C63   C79   S    
C110  H23   S    
O43   Zn4   S    
C18   C65   S    
C31   C67   A    
C3    H21   S    
C9    C127  A    
C31   C43   A    
C30   C35   A    
C36   C47   A    
C50   H39   S    
C87   O21   A    
C80   O39   A    
C19   C110  A    
C41   F7    S    
C30   C64   A    
C85   O15   A    
C17   C64   S    
C23   C119  A    
C20   C113  A    
C31   F13   S    
O4    Zn11  S    
C11   C71   S    
C71   O34   A    
C13   C57   A    
C14   C135  A    
C35   H31   S    
C11   C129  A    
C43   H32   S    
C120  H4    S    
C26   C126  A    
C19   C66   S    
O17   Zn7   S    
C104  O7    A    
C76   O30   A    
O12   Zn5   S    
C75   O29   A    
C85   O17   A    
C24   C29   A    
C112  H44   S    
C5    C16   A    
C74   O28   A    
O22   Zn10  S    
C43   C58   A    
C6    C15   A    
C29   C67   A    
C113  H45   S    
C111  C129  A    
C7    C14   A    
C108  H1    S    
C39   F5    S    
C45   C56   A    
C84   O14   A    
O16   Zn1   S    
C95   C103  T    
C58   C75   S    
C21   C117  A    
C84   C92   S    
C13   C28   A    
C2    C27   A    
C34   C46   A    
C135  H19   S    
C91   C100  T    
C4    C12   A    
C40   C72   A    
C25   C122  A    
C7    C124  A    
C14   C93   S    
C73   O33   A    
C88   C97   S    
O3    Zn10  S    
C44   H33   S    
C85   C94   S    
C100  C106  S    
C131  H15   S    
O8    Zn11  S    
C121  H5    S    
C37   C70   A    
C87   C96   S    
C53   H42   S    
C23   C70   S    
C112  C130  A    
O41   Zn4   S    
C2    H28   S    
C79   O40   A    
C10   C128  A    
C117  C134  A    
C56   C73   S    
C133  H17   S    
C83   O13   A    
C109  C127  A    
O33   Zn2   S    
O5    Zn10  S    
C101  C105  S    
C38   C72   A    
C78   O41   A    
C38   C50   A    
O39   Zn3   S    
C77   O42   A    
C104  O3    A    
C136  H20   S    
C9    C49   S    
C74   O32   A    
C36   F2    S    
C33   F15   S    
O2    Zn9   S    
C18   C116  A    
C73   O27   A    
C116  H47   S    
C34   F16   S    
C45   H35   S    
C23   C123  A    
C116  C133  A    
C19   C114  A    
C32   F14   S    
C40   C52   A    
C24   H30   S    
C5    C122  A    
C52   C63   A    
C128  H11   S    
C86   O18   A    
C98   C107  T    
C7    H26   S    
C57   C74   S    
C47   H37   S    
C10   C60   S    
O7    Zn8   S    
O10   Zn5   S    
C47   C61   A    
C27   C65   A    
C1    O44   A    
C20   C111  A    
C53   C62   A    
C130  H14   S    
C59   C80   S    
C48   C62   A    
C88   O25   A    
C55   C126  A    
O47   Zn7   S    
C44   C57   A    
C27   F9    S    
C115  O4    A    
O48   Zn8   S    
C122  H6    S    
C12   C82   S    
C126  H27   S    
C25   C72   S    
C86   O20   A    
C37   C48   A    
C75   O31   A    
C93   O2    A    
C41   C53   A    
C35   C55   A    
C49   O47   A    
C117  H48   S    
C92   C101  T    
C2    C56   A    
O19   Zn9   S    
C55   C76   S    
O27   Zn12  S    
C81   O11   A    
O6    Zn9   S    
O30   Zn12  S    
O40   Zn4   S    
C78   O37   A    
C87   O19   A    
C6    H25   S    
C42   F8    S    
C15   C104  S    
C5    H24   S    
C88   O22   A    
C17   C108  A    
C51   C59   A    
C81   C90   S    
O11   Zn6   S    
C34   C68   A    
C17   C112  A    
C25   C120  A    
C90   C99   T    
C99   C107  S    
C36   C69   A    
C32   C66   A    
C108  C125  A    
C37   F3    S    
C22   C118  A    
C61   C77   S    
C111  H34   S    
C119  H3    S    
C54   H43   S    
C113  C131  A    
O1    Zn1   S    
C114  C132  A    
C114  H46   S    
C62   C78   S    
C125  H9    S    
C52   H41   S    
C132  H16   S    
C109  H12   S    
C11   C131  A    
O26   Zn11  S    
C29   F11   S    
O28   Zn12  S    
C30   F12   S    
C15   C136  A    
C54   C61   A    
C26   C64   A    
C38   F4    S    
C127  H10   S    
C83   C91   S    
C42   C69   A    
C28   F10   S    
C119  C136  A    
C79   O38   A    
C80   O43   A    
C129  H13   S    
C89   C98   S    
O42   Zn4   S    
C22   C124  A    
O38   Zn3   S    
C21   C68   S    
C13   H29   S    
C42   C54   A    
C8    C130  A    
C93   O8    A    
O23   Zn6   S    
C12   C134  A    
O45   Zn5   S    
C86   C95   S    
O25   Zn8   S    
C124  H8    S    
C49   O12   A    
C4    H22   S    
C4    C121  A    
C118  H2    S    
C76   O35   A    
C82   O48   A    
C77   O36   A    
C21   C121  A    
C102  C103  S    
C10   C132  A    
C123  H7    S    
C83   O10   A    
O13   Zn7   S    
C3    C120  A    
C51   H40   S    
O29   Zn12  S    
C97   C106  T    
C8    C125  A    
C71   O45   A    
O32   Zn2   S    
C32   C44   A    
C24   C58   A    
C81   O9    A    
C134  H18   S    
C115  O6    A    
C110  C128  A    
C48   H38   S    
C22   C69   S    
O18   Zn8   S    
O37   Zn3   S    
O44   Zn6   S    
C28   C66   A    
O36   Zn3   S    
O35   Zn2   S    
C46   H36   S    
O21   Zn11  S    
O31   Zn2   S    
C6    C123  A    
O34   Zn7   S    
C82   O5    A    
C118  C135  A    
C84   O16   A    
C94   C102  T    
O9    Zn1   S    
C41   C70   A    
O46   Zn1   S    
C9    C133  A    
