data_mof_unit_pretest_1622.cif
_audit_creation_date              2012-12-10T18:13:11-0500
_audit_creation_method            fapswitch 2.2
_symmetry_space_group_name_H-M    P1
_symmetry_Int_Tables_number       1
_space_group_crystal_system       triclinic
_cell_length_a                    36.231759
_cell_length_b                    29.161173
_cell_length_c                    21.628896
_cell_angle_alpha                 90.302726
_cell_angle_beta                  126.407792
_cell_angle_gamma                 89.797047
_cell_volume                      18391.5221008

loop_
_atom_site_label
_atom_site_type_symbol
_atom_type_description
_atom_site_fract_x
_atom_site_fract_y
_atom_site_fract_z
_atom_type_partial_charge
C1    C     C_R   0.913236 0.000011 0.913242 0.948237
C2    C     C_1   0.229487 0.999969 0.229774 0.028158
C3    C     C_3   0.487878 0.549817 0.277153 -0.163407
C4    C     C_1   0.862562 0.000029 0.862472 -0.158411
C5    C     C_1   0.137438 0.999971 0.137527 -0.158651
C6    C     C_1   0.362562 0.500026 0.862459 -0.167288
C7    C     C_1   0.637437 0.499972 0.137536 -0.166231
C8    C     C_2   0.939099 0.068966 0.626549 0.416250
C9    C     C_2   0.066327 0.936651 0.378352 0.388780
C10   C     C_2   0.964286 0.917624 0.270838 0.412735
C11   C     C_2   0.042286 0.079895 0.736172 0.376612
C12   C     C_2   0.532515 0.415730 0.723944 0.303070
C13   C     C_1   0.270513 0.500025 0.770219 0.028212
C14   C     C_2   0.569207 0.440601 0.378495 0.364494
C15   C     C_2   0.469223 0.415413 0.277386 0.423476
C16   C     C_2   0.430647 0.441312 0.620529 0.471140
C17   C     C_2   0.966268 0.919805 0.647106 0.272054
C18   C     C_2   0.025334 0.085939 0.342597 0.445150
C19   C     C_2   0.943980 0.065817 0.254107 0.381720
C20   C     C_2   0.048734 0.929260 0.733927 0.530888
C21   C     C_2   0.559306 0.564264 0.745790 0.575114
C22   C     C_2   0.519686 0.586917 0.336342 0.509723
C23   C     C_2   0.439211 0.562339 0.251038 0.427874
C24   C     C_1   0.729487 0.499970 0.229776 0.029049
C25   C     C_2   0.478487 0.584221 0.660549 0.309939
C26   C     C_1   0.728295 0.000025 0.727941 0.022147
C27   C     C_1   0.271705 0.999975 0.272059 0.024400
C28   C     C_1   0.228295 0.500019 0.727936 0.024279
C29   C     C_1   0.771704 0.499976 0.272060 0.024704
C30   C     C_1   0.678458 0.000016 0.678071 0.016253
C31   C     C_1   0.321541 0.999984 0.321929 0.018014
C32   C     C_1   0.178459 0.500012 0.678068 0.018284
C33   C     C_R   0.086763 0.999989 0.086755 0.948582
C34   C     C_1   0.821541 0.499985 0.321930 0.018552
C35   C     C_1   0.636239 0.000008 0.635898 -0.186382
C36   C     C_1   0.363761 0.999992 0.364102 -0.185089
C37   C     C_1   0.136239 0.500005 0.635897 -0.184491
C38   C     C_1   0.863761 0.499992 0.364102 -0.184292
C39   C     C_R   0.000010 0.913255 0.500095 0.871951
C40   C     C_R   0.999989 0.086746 0.499959 0.949595
C41   C     C_R   0.500010 0.413251 0.500021 0.855128
C42   C     C_R   0.499989 0.586744 0.500047 0.957725
C43   C     C_R   0.999823 0.004161 0.621940 0.830723
C44   C     C_R   0.413236 0.500010 0.913223 0.953987
C45   C     C_R   0.000239 0.996945 0.377971 0.953732
C46   C     C_R   0.499903 0.496839 0.622076 0.826425
C47   C     C_R   0.500205 0.497137 0.377911 0.937944
C48   C     C_R   0.500000 0.085563 0.500143 0.872765
C49   C     C_R   0.499999 0.914436 0.499857 0.872995
C50   C     C_R   1.000000 0.585563 0.500144 0.872732
C51   C     C_R   0.999999 0.414436 0.499856 0.871966
C52   C     C_R   0.585552 0.000000 0.585428 0.872736
C53   C     C_R   0.414448 1.000000 0.414572 0.873169
C54   C     C_R   0.085552 0.499999 0.585428 0.872332
C55   C     C_R   0.586763 0.499990 0.086773 0.955946
C56   C     C_R   0.914448 0.500000 0.414572 0.872480
C57   C     C_1   0.000027 0.862587 0.500241 -0.188704
C58   C     C_1   0.999971 0.137413 0.499802 -0.171149
C59   C     C_1   0.500028 0.362583 0.500156 -0.201811
C60   C     C_1   0.499971 0.637410 0.499896 -0.159664
C61   C     C_R   0.000771 0.999720 0.878386 1.059735
C62   C     C_R   0.998487 0.000288 0.120817 1.073915
C63   C     C_R   0.502384 0.500183 0.880043 1.028613
C64   C     C_R   0.497025 0.500365 0.119289 1.030174
C65   C     C_1   0.000029 0.820374 0.500356 0.044585
C66   C     C_1   0.820346 0.000034 0.820164 0.023708
C67   C     C_1   0.999966 0.179626 0.499675 0.036604
C68   C     C_1   0.500032 0.320370 0.500268 0.035122
C69   C     C_1   0.499966 0.679623 0.499771 0.046270
C70   C     C_1   0.000025 0.770539 0.500459 0.037214
C71   C     C_1   0.999968 0.229461 0.499559 0.031717
C72   C     C_1   0.500029 0.270535 0.500384 0.033229
C73   C     C_1   0.499969 0.729458 0.499643 0.034124
C74   C     C_1   0.500023 0.228316 0.500454 0.026363
C75   C     C_1   0.499974 0.771678 0.499563 0.026583
C76   C     C_1   0.000020 0.728319 0.500510 0.029112
C77   C     C_1   0.179653 0.999966 0.179835 0.026420
C78   C     C_1   0.999974 0.271680 0.499501 0.025747
C79   C     C_1   0.500015 0.178476 0.500481 0.019550
C80   C     C_1   0.499983 0.821520 0.499527 0.019310
C81   C     C_1   0.000012 0.678478 0.500509 0.021881
C82   C     C_1   0.999983 0.321522 0.499495 0.018914
C83   C     C_1   0.500008 0.136254 0.500413 -0.184745
C84   C     C_1   0.499991 0.863743 0.499589 -0.184941
C85   C     C_1   0.000006 0.636256 0.500422 -0.182518
C86   C     C_1   0.999991 0.363744 0.499578 -0.184723
C87   C     C_3   0.958389 0.028026 0.746716 0.104206
C88   C     C_1   0.320347 0.500028 0.820154 0.026584
C89   C     C_3   0.043142 0.975486 0.254425 0.090908
C90   C     C_3   0.957213 0.972250 0.170689 0.111498
C91   C     C_3   0.044269 0.024899 0.831243 0.138478
C92   C     C_3   0.541273 0.468947 0.827337 0.124863
C93   C     C_3   0.544733 0.481676 0.255257 0.155270
C94   C     C_3   0.459337 0.468345 0.173192 0.107591
C95   C     C_3   0.455674 0.480074 0.744016 0.159751
C96   C     C_3   0.953777 0.023885 0.670991 -0.267202
C97   C     C_3   0.047816 0.980350 0.330126 -0.260817
C98   C     C_3   0.960484 0.967105 0.245367 -0.303876
C99   C     C_1   0.679653 0.499968 0.179840 0.028146
C100  C     C_3   0.041931 0.030250 0.757444 -0.227172
C101  C     C_3   0.538288 0.464747 0.752862 -0.218741
C102  C     C_3   0.548460 0.484116 0.330303 -0.235112
C103  C     C_3   0.462552 0.464293 0.247831 -0.307211
C104  C     C_3   0.451840 0.484328 0.669344 -0.248764
C105  C     C_3   0.999219 0.948390 0.782780 0.828575
C106  C     C_3   0.996557 0.051809 0.212500 0.703680
C107  C     C_3   0.508234 0.551572 0.792640 0.814508
C108  C     C_3   0.490256 0.551617 0.206306 0.698857
C109  C     C_3   0.000501 0.999291 0.810580 -0.114568
C110  C     C_1   0.770512 0.000031 0.770227 0.025257
C111  C     C_3   0.998927 0.000868 0.188738 -0.051136
C112  C     C_3   0.502169 0.500917 0.812208 -0.079953
C113  C     C_3   0.497556 0.501281 0.187410 -0.031373
C114  C     C_3   0.999532 0.002340 0.689318 -0.255783
C115  C     C_3   0.000637 0.998487 0.310718 -0.199678
C116  C     C_3   0.500177 0.498480 0.690013 -0.308341
C117  C     C_3   0.500252 0.498591 0.310269 -0.229216
C118  C     C_3   0.003548 0.949862 0.713716 -0.212416
C119  C     C_3   0.992208 0.050471 0.281377 -0.213561
C120  C     C_3   0.511798 0.549687 0.722903 -0.150831
H1    H     H_    0.965396 0.064279 0.767468 0.208808
H2    H     H_    0.074657 0.006384 0.366051 0.213693
H3    H     H_    0.927351 0.978657 0.232501 0.162529
H4    H     H_    0.074078 0.015980 0.769679 0.205287
H5    H     H_    0.572050 0.474782 0.767138 0.210455
H6    H     H_    0.573806 0.511172 0.366746 0.235735
H7    H     H_    0.428686 0.473921 0.233766 0.161096
H8    H     H_    0.426763 0.511913 0.634302 0.206499
H9    H     H_    0.894502 0.038739 0.704365 0.367573
H10   H     H_    0.107517 0.969500 0.296615 0.366580
H11   H     H_    0.891074 0.970140 0.094370 0.344542
H12   H     H_    0.038767 0.938783 0.236503 0.206983
H13   H     H_    0.110308 0.022461 0.908324 0.345492
H14   H     H_    0.606835 0.460909 0.904150 0.348230
H15   H     H_    0.609176 0.486600 0.297554 0.348684
H16   H     H_    0.393982 0.458579 0.096769 0.347908
H17   H     H_    0.391401 0.481702 0.704199 0.366962
H18   H     H_    0.932178 0.070198 0.570501 0.088761
H19   H     H_    0.076053 0.936757 0.436336 0.099150
H20   H     H_    0.962723 0.910489 0.318430 0.059545
H21   H     H_    0.045424 0.086933 0.690258 0.072279
H22   H     H_    0.537796 0.408401 0.680462 0.089657
H23   H     H_    0.958278 0.938069 0.148493 0.176961
H24   H     H_    0.579011 0.439904 0.436517 0.105865
H25   H     H_    0.468610 0.408941 0.326129 0.056341
H26   H     H_    0.447364 0.422505 0.600142 0.084464
H27   H     H_    0.931599 0.939510 0.713998 0.358528
H28   H     H_    0.063276 0.065812 0.280828 0.365143
H29   H     H_    0.960577 0.107064 0.160303 0.344152
H30   H     H_    0.030910 0.890548 0.830047 0.369452
H31   H     H_    0.541031 0.590776 0.886950 0.342769
H32   H     H_    0.518891 0.611695 0.218573 0.315175
H33   H     H_    0.454920 0.587892 0.109405 0.354983
H34   H     H_    0.045365 0.059069 0.855623 0.160633
H35   H     H_    0.476873 0.610524 0.777704 0.359146
H36   H     H_    0.938304 0.934395 0.593024 0.118274
H37   H     H_    0.019881 0.121979 0.327030 0.109045
H38   H     H_    0.913819 0.054068 0.199406 0.166664
H39   H     H_    0.049003 0.911840 0.689623 0.068118
H40   H     H_    0.561809 0.582919 0.705014 0.053518
H41   H     H_    0.512125 0.622700 0.319516 0.077363
H42   H     H_    0.409405 0.547277 0.199250 0.163515
H43   H     H_    0.448767 0.573162 0.604887 0.114580
H44   H     H_    0.536872 0.434796 0.845075 0.167528
H45   H     H_    0.546066 0.445482 0.239759 0.174977
H46   H     H_    0.464625 0.434310 0.155906 0.181576
H47   H     H_    0.455339 0.443084 0.757152 0.144742
H48   H     H_    0.925039 0.000042 0.632503 0.152671
O1    O     O_R   0.936850 0.964330 0.936870 -0.603699
O2    O     O_R   0.000010 0.035670 0.092610 -0.534013
O3    O     O_R   0.000010 0.964330 0.092610 -0.672054
O4    O     O_R   0.999990 0.035670 0.907390 -0.665354
O5    O     O_R   0.499990 0.464330 0.907390 -0.653208
O6    O     O_R   0.500010 0.535670 0.092610 -0.583810
O7    O     O_R   0.500010 0.464330 0.092610 -0.657896
O8    O     O_R   0.499990 0.535670 0.907390 -0.590927
O9    O     O_R   0.964320 0.936860 0.464320 -0.605394
O10   O     O_R   0.035680 0.063140 0.535680 -0.584735
O11   O     O_R   0.035680 0.936860 0.535680 -0.611962
O12   O     O_R   0.063150 0.035670 0.063130 -0.604849
O13   O     O_R   0.964320 0.063140 0.464320 -0.582505
O14   O     O_R   0.464320 0.436860 0.464320 -0.606671
O15   O     O_R   0.535680 0.563140 0.535680 -0.584271
O16   O     O_R   0.535680 0.436860 0.535680 -0.612896
O17   O     O_R   0.464320 0.563140 0.464320 -0.574447
O18   O     O_R   0.964330 0.000000 0.556950 -0.648667
O19   O     O_R   0.035670 0.000000 0.443050 -0.590859
O20   O     O_R   0.464330 0.500000 0.556950 -0.633432
O21   O     O_R   0.535670 0.500000 0.443050 -0.595493
O22   O     O_R   0.035630 0.000000 0.628230 -0.630435
O23   O     O_R   0.063150 0.964330 0.063130 -0.595384
O24   O     O_R   0.964370 0.000000 0.371770 -0.612937
O25   O     O_R   0.535630 0.500000 0.628230 -0.633324
O26   O     O_R   0.464370 0.500000 0.371770 -0.614758
O27   O     O_R   0.499940 0.063120 0.447680 -0.588034
O28   O     O_R   0.500060 0.936880 0.552320 -0.587712
O29   O     O_R   0.500060 0.063120 0.552320 -0.588675
O30   O     O_R   0.499940 0.936880 0.447680 -0.589353
O31   O     O_R   0.999940 0.563120 0.447680 -0.587437
O32   O     O_R   0.000060 0.436880 0.552320 -0.587746
O33   O     O_R   0.000060 0.563120 0.552320 -0.587951
O34   O     O_R   0.936850 0.035670 0.936870 -0.598314
O35   O     O_R   0.999940 0.436880 0.447680 -0.589154
O36   O     O_R   0.563110 0.000000 0.510830 -0.589058
O37   O     O_R   0.436890 1.000000 0.489170 -0.588618
O38   O     O_R   0.063110 0.500000 0.510830 -0.588133
O39   O     O_R   0.936890 0.500000 0.489170 -0.588451
O40   O     O_R   0.563120 1.000000 0.615390 -0.588677
O41   O     O_R   0.436880 0.000000 0.384610 -0.588287
O42   O     O_R   0.063120 0.500000 0.615390 -0.588435
O43   O     O_R   0.936880 0.500000 0.384610 -0.588020
O44   O     O_3   0.917618 0.014567 0.735822 -0.778199
O45   O     O_R   0.436850 0.464330 0.936870 -0.605770
O46   O     O_3   0.082621 0.991869 0.263543 -0.773366
O47   O     O_3   0.915628 0.993235 0.112504 -0.743952
O48   O     O_3   0.084164 0.001149 0.888422 -0.675941
O49   O     O_3   0.584333 0.486034 0.888362 -0.682596
O50   O     O_3   0.581278 0.505649 0.264102 -0.704613
O51   O     O_3   0.415749 0.484325 0.112218 -0.741820
O52   O     O_3   0.418378 0.502147 0.735904 -0.701462
O53   O     O_2   0.933462 0.104085 0.651033 -0.536027
O54   O     O_2   0.072191 0.901244 0.354799 -0.530744
O55   O     O_2   0.968778 0.885479 0.239393 -0.532373
O56   O     O_R   0.563150 0.535670 0.063130 -0.593039
O57   O     O_2   0.039332 0.112258 0.769080 -0.535379
O58   O     O_2   0.521945 0.384254 0.747623 -0.562929
O59   O     O_2   0.576636 0.406280 0.354846 -0.530079
O60   O     O_2   0.474804 0.382975 0.247790 -0.530689
O61   O     O_2   0.393242 0.427999 0.601151 -0.557879
O62   O     O_3   0.958426 0.926481 0.762312 -0.720745
O63   O     O_3   0.035664 0.076593 0.231256 -0.748016
O64   O     O_3   0.957966 0.073799 0.148177 -0.707851
O65   O     O_3   0.035991 0.923464 0.845015 -0.640929
O66   O     O_3   0.548617 0.571369 0.858124 -0.694706
O67   O     O_R   0.563150 0.464330 0.063130 -0.606853
O68   O     O_3   0.527789 0.578905 0.224023 -0.721698
O69   O     O_3   0.448706 0.569859 0.141043 -0.778076
O70   O     O_3   0.469298 0.577405 0.772597 -0.728354
O71   O     O_2   0.966714 0.878230 0.654518 -0.528344
O72   O     O_2   0.057865 0.075642 0.407477 -0.570755
O73   O     O_2   0.938118 0.090970 0.293026 -0.570611
O74   O     O_2   0.085290 0.933524 0.797229 -0.499533
O75   O     O_2   0.595054 0.553848 0.807117 -0.487400
O76   O     O_2   0.552769 0.578323 0.401675 -0.569795
O77   O     O_2   0.432596 0.589111 0.287274 -0.578046
O78   O     O_R   0.436850 0.535670 0.936870 -0.597166
O79   O     O_2   0.484949 0.625480 0.672246 -0.563167
O80   O     O_R   0.999990 0.964330 0.907390 -0.541331
Zn1   Zn    Zn3+2 0.000000 0.952370 0.000000 1.069022
Zn2   Zn    Zn3+2 0.500030 0.000000 0.569830 0.996177
Zn3   Zn    Zn3+2 0.999970 0.500000 0.430170 0.998859
Zn4   Zn    Zn3+2 0.000030 0.500000 0.569830 0.998961
Zn5   Zn    Zn3+2 0.000000 0.047630 0.000000 1.064768
Zn6   Zn    Zn3+2 0.500000 0.452370 0.000000 1.011120
Zn7   Zn    Zn3+2 0.500000 0.547630 0.000000 1.043055
Zn8   Zn    Zn3+2 0.952370 1.000000 0.452390 0.985682
Zn9   Zn    Zn3+2 0.047630 0.000000 0.547610 1.002596
Zn10  Zn    Zn3+2 0.452370 0.500000 0.452390 1.007148
Zn11  Zn    Zn3+2 0.547630 0.500000 0.547610 0.999931
Zn12  Zn    Zn3+2 0.499970 1.000000 0.430170 0.995285

loop_
_geom_bond_atom_site_label_1
_geom_bond_atom_site_label_2
_ccdc_geom_bond_type
C4    C66   T    
C108  O68   S    
C47   O21   A    
C50   O31   A    
C106  C119  S    
C52   O36   A    
C24   C99   S    
C73   C75   T    
C107  C112  S    
C47   O26   A    
C3    C23   S    
O27   Zn12  S    
C8    C96   S    
C7    C55   S    
C80   C84   T    
C61   C109  S    
C94   H46   S    
O30   Zn12  S    
O11   Zn9   S    
C63   O8    A    
H16   O51   S    
C95   C104  S    
C61   O80   A    
C20   O74   D    
C62   O3    A    
C91   O48   S    
C89   H12   S    
C7    C99   T    
C30   C35   T    
C64   O7    A    
O29   Zn2   S    
C49   C84   S    
C8    H18   S    
O10   Zn9   S    
O20   Zn10  S    
C21   C120  S    
C95   C112  S    
C43   C114  S    
H27   O62   S    
C14   C102  S    
O34   Zn5   S    
O78   Zn7   S    
C65   C70   S    
C39   C57   S    
C16   O61   D    
C6    C88   T    
C106  O63   S    
H17   O52   S    
C16   H26   S    
C87   O44   S    
O1    Zn1   S    
C63   C112  S    
C10   C98   S    
C78   C82   S    
C24   C29   T    
O37   Zn2   S    
C3    C117  S    
C50   C85   S    
O25   Zn11  S    
C104  C116  S    
C9    O54   D    
C16   C104  S    
C62   C111  S    
O36   Zn12  S    
H35   O70   S    
C51   O35   A    
C54   O38   A    
C20   H39   S    
C5    C33   S    
C53   O37   A    
C96   H48   S    
C13   C28   T    
C69   C73   S    
C2    C27   T    
C36   C53   S    
C91   C100  S    
C97   C115  S    
C103  H7    S    
C75   C80   S    
C26   C110  T    
C90   H23   S    
C68   C72   S    
C106  C111  S    
C23   H42   S    
C12   C101  S    
C92   H44   S    
C19   C119  S    
O17   Zn10  S    
C34   C38   T    
C33   O12   A    
H29   O64   S    
O22   Zn9   S    
C96   C114  S    
O45   Zn6   S    
C103  C117  S    
C10   H20   S    
C90   C111  S    
O14   Zn10  S    
C1    O34   A    
H15   O50   S    
C51   C86   S    
C20   C118  S    
C90   O47   S    
C39   O9    A    
C94   C113  S    
C18   O72   D    
C63   O5    A    
C15   O60   D    
C49   O30   A    
C46   O20   A    
C98   H3    S    
C62   O2    A    
C107  O70   S    
C14   H24   S    
O4    Zn5   S    
O16   Zn11  S    
C40   C58   S    
O21   Zn11  S    
C17   C118  S    
C27   C31   S    
C44   O45   A    
C28   C32   S    
C46   C116  S    
C100  C114  S    
C41   C59   S    
C91   H34   S    
C72   C74   T    
C42   C60   S    
C61   O4    A    
C22   H41   S    
C45   O19   A    
O41   Zn12  S    
C93   C113  S    
C43   O18   A    
O24   Zn8   S    
C82   C86   T    
H31   O66   S    
H11   O47   S    
C29   C34   S    
C43   O22   A    
C116  C120  S    
C89   C97   S    
C11   C100  S    
O26   Zn10  S    
C108  C113  S    
C23   O77   D    
C22   O76   D    
O18   Zn8   S    
C97   H2    S    
O13   Zn8   S    
C59   C68   T    
C45   C115  S    
C45   O24   A    
C12   O58   D    
C104  H8    S    
C54   O42   A    
O5    Zn6   S    
C11   O57   D    
O33   Zn4   S    
C87   C96   S    
C95   O52   S    
C41   O16   A    
H28   O63   S    
O40   Zn2   S    
C32   C37   T    
C66   C110  S    
H9    O44   S    
O38   Zn3   S    
C11   H21   S    
O12   Zn5   S    
C114  C118  S    
C102  C117  S    
C10   O55   D    
C56   O43   A    
C40   O10   A    
C37   C54   S    
C17   O71   D    
C42   O17   A    
O31   Zn3   S    
C107  O66   S    
C94   C103  S    
C26   C30   S    
C115  C119  S    
C74   C79   S    
C48   O27   A    
C70   C76   T    
C3    C108  S    
C21   H40   S    
O35   Zn3   S    
C41   O14   A    
C5    C77   T    
H14   O49   S    
C25   C120  S    
C25   O79   D    
C107  C120  S    
C89   O46   S    
O80   Zn1   S    
O7    Zn6   S    
C15   H25   S    
C40   O13   A    
O39   Zn4   S    
C50   O33   A    
C87   H1    S    
O9    Zn8   S    
C105  C109  S    
O19   Zn9   S    
C9    C97   S    
C64   C113  S    
O2    Zn5   S    
C14   O59   D    
C52   O40   A    
C19   H38   S    
C105  O65   S    
C92   C112  S    
O67   Zn6   S    
C57   C65   T    
C102  H6    S    
C95   H47   S    
C76   C81   S    
C39   O11   A    
C46   O25   A    
O42   Zn4   S    
C92   C101  S    
C87   C109  S    
C49   O28   A    
C44   O78   A    
C42   O15   A    
H30   O65   S    
C89   C111  S    
O15   Zn11  S    
C48   C83   S    
C21   O75   D    
C48   O29   A    
C33   O23   A    
C1    C4    S    
O43   Zn3   S    
C105  O62   S    
C91   C109  S    
C58   C67   T    
C18   H37   S    
O32   Zn4   S    
O8    Zn7   S    
C79   C83   T    
C9    H19   S    
C98   C115  S    
C56   O39   A    
C60   C69   T    
C25   H43   S    
C18   C119  S    
C13   C88   S    
C1    O1    A    
C94   O51   S    
O23   Zn1   S    
C12   H22   S    
H10   O46   S    
C67   C71   S    
C55   O67   A    
C92   O49   S    
C105  C118  S    
H13   O48   S    
C51   O32   A    
C19   O73   D    
C93   H45   S    
C15   C103  S    
O6    Zn7   S    
C47   C117  S    
C38   C56   S    
C108  O69   S    
C93   C102  S    
C53   O41   A    
H32   O68   S    
O28   Zn2   S    
C35   C52   S    
C106  O64   S    
C101  C116  S    
C2    C77   S    
C31   C36   T    
C93   O50   S    
C3    C22   S    
C6    C44   S    
C100  H4    S    
C17   H36   S    
C64   O6    A    
C101  H5    S    
C90   C98   S    
C71   C78   T    
C81   C85   T    
C8    O53   D    
O56   Zn7   S    
O3    Zn1   S    
C55   O56   A    
H33   O69   S    
