data_mof_unit_pretest_1505.cif
_audit_creation_date              2012-12-10T21:14:40-0500
_audit_creation_method            fapswitch 2.2
_symmetry_space_group_name_H-M    P1
_symmetry_Int_Tables_number       1
_space_group_crystal_system       monoclinic
_cell_length_a                    17.605208
_cell_length_b                    16.744677
_cell_length_c                    11.566235
_cell_angle_alpha                 90.0
_cell_angle_beta                  90.131029
_cell_angle_gamma                 90.0
_cell_volume                      3409.6422299

loop_
_atom_site_label
_atom_site_type_symbol
_atom_type_description
_atom_site_fract_x
_atom_site_fract_y
_atom_site_fract_z
_atom_type_partial_charge
C1    C     C_R   0.353223 0.500000 0.499848 0.866082
C2    C     C_R   0.646776 0.500000 0.500152 0.866082
C3    C     C_R   0.768952 0.572690 0.500534 -0.203065
C4    C     C_R   0.231048 0.427310 0.499466 -0.203065
C5    C     C_R   0.231048 0.572690 0.499466 -0.203065
C6    C     C_R   0.768952 0.427310 0.500534 -0.203065
C7    C     C_R   0.729240 0.500000 0.500417 -0.034576
C8    C     C_R   0.270759 0.500000 0.499583 -0.034576
C9    C     C_R   0.886402 0.500000 0.500478 0.166980
C10   C     C_R   0.113598 0.500000 0.499522 0.166980
C11   C     C_1   0.966311 0.500000 0.500158 -0.070568
C12   C     C_1   0.033688 0.500000 0.499843 -0.070568
C13   C     C_R   0.499959 0.500000 0.281415 0.917633
C14   C     C_R   0.500041 0.500000 0.718585 0.917633
C15   C     C_R   0.448147 0.832306 0.432033 -0.269519
C16   C     C_R   0.551853 0.167694 0.567967 -0.269519
C17   C     C_R   0.551853 0.832306 0.567967 -0.269519
C18   C     C_R   0.448147 0.167694 0.432033 -0.269519
C19   C     C_R   0.449085 0.748086 0.433239 0.016044
C20   C     C_R   0.550915 0.251913 0.566761 0.016044
C21   C     C_R   0.550915 0.748086 0.566761 0.016044
C22   C     C_R   0.449085 0.251913 0.433239 0.016044
C23   C     C_1   0.500000 0.963424 0.500000 -0.047898
C24   C     C_1   0.500000 0.036576 0.500000 -0.047898
C25   C     C_1   0.499964 0.500000 0.161187 -0.195887
C26   C     C_1   0.500036 0.500000 0.838813 -0.195887
C27   C     C_1   0.499984 0.500000 0.059212 0.000759
C28   C     C_1   0.500016 0.500000 0.940788 0.000759
C29   C     C_R   0.500000 0.875571 0.500000 0.160866
C30   C     C_R   0.500000 0.124429 0.500000 0.160866
C31   C     C_R   0.847663 0.572569 0.500545 -0.165620
C32   C     C_R   0.152337 0.427431 0.499455 -0.165620
C33   C     C_R   0.152337 0.572569 0.499455 -0.165620
C34   C     C_R   0.847663 0.427431 0.500545 -0.165620
H1    H     H_    0.408920 0.715345 0.380530 0.124269
H2    H     H_    0.591080 0.284655 0.619469 0.124269
H3    H     H_    0.591080 0.715345 0.619469 0.124269
H4    H     H_    0.408920 0.284655 0.380530 0.124269
H5    H     H_    0.739371 0.629414 0.500550 0.155561
H6    H     H_    0.260629 0.370586 0.499450 0.155561
H7    H     H_    0.260629 0.629414 0.499450 0.155561
H8    H     H_    0.739371 0.370586 0.500550 0.155561
N1    N     N_R   0.500000 0.707230 0.500000 -0.088443
N2    N     N_R   0.500000 0.292770 0.500000 -0.088443
O1    O     O_R   0.389110 0.566570 0.499990 -0.627049
O2    O     O_R   0.610890 0.433430 0.500010 -0.627048
O3    O     O_R   0.610890 0.566570 0.500010 -0.627049
O4    O     O_R   0.389110 0.433430 0.499990 -0.627049
O5    O     O_R   0.500000 0.566540 0.334450 -0.613563
O6    O     O_R   0.500000 0.433460 0.665550 -0.613562
O7    O     O_R   0.500000 0.566540 0.665550 -0.613563
O8    O     O_R   0.500000 0.433460 0.334450 -0.613562
Zn1   Zn    Zn3+2 0.500000 0.588860 0.500000 0.946557
Zn2   Zn    Zn3+2 0.500000 0.411140 0.500000 0.946557
H9    H     H_    0.407199 0.863333 0.378356 0.139318
H10   H     H_    0.592801 0.136667 0.621644 0.139318
H11   H     H_    0.592801 0.863333 0.621644 0.139318
H12   H     H_    0.407199 0.136667 0.378356 0.139318
H13   H     H_    0.878242 0.628754 0.500526 0.132871
H14   H     H_    0.121758 0.371246 0.499474 0.132871
H15   H     H_    0.121758 0.628754 0.499474 0.132871
H16   H     H_    0.878242 0.371246 0.500526 0.132871

loop_
_geom_bond_atom_site_label_1
_geom_bond_atom_site_label_2
_ccdc_geom_bond_type
O4    Zn2   S    
C5    C8    A    
C3    C31   A    
C23   C24   T    
C16   H10   S    
C1    O4    A    
C4    H6    S    
C6    C7    A    
C18   C30   A    
C10   C32   A    
C2    O3    A    
C25   C27   T    
C13   O8    A    
C17   C29   A    
C4    C8    A    
C26   C28   T    
C2    C7    S    
C16   C20   A    
O3    Zn1   S    
C13   C25   S    
O2    Zn2   S    
O1    Zn1   S    
C19   H1    S    
C14   C26   S    
C15   C19   A    
C9    C11   S    
C1    O1    A    
O6    Zn2   S    
C6    C34   A    
C10   C12   S    
C14   O6    A    
C13   O5    A    
C23   C29   S    
C20   N2    A    
C19   N1    A    
O8    Zn2   S    
C15   C29   A    
C10   C33   A    
C3    C7    A    
C5    C33   A    
C2    O2    A    
C9    C34   A    
O5    Zn1   S    
C24   C30   S    
C21   N1    A    
C32   H14   S    
C3    H5    S    
C4    C32   A    
C1    C8    S    
N2    Zn2   S    
C34   H16   S    
C21   H3    S    
C33   H15   S    
C6    H8    S    
C31   H13   S    
C27   C28   S    
C9    C31   A    
C22   N2    A    
C20   H2    S    
C5    H7    S    
C18   C22   A    
C16   C30   A    
N1    Zn1   S    
C17   C21   A    
C14   O7    A    
C11   C12   T    
C17   H11   S    
C18   H12   S    
O7    Zn1   S    
C22   H4    S    
C15   H9    S    
