data_mof_unit_pretest_1190.cif
_audit_creation_date              2013-03-05T16:04:57-0500
_audit_creation_method            fapswitch 2.2
_symmetry_space_group_name_H-M    P1
_symmetry_Int_Tables_number       1
_space_group_crystal_system       triclinic
_cell_length_a                    23.652158
_cell_length_b                    20.412228
_cell_length_c                    14.936793
_cell_angle_alpha                 89.995296
_cell_angle_beta                  99.301856
_cell_angle_gamma                 89.996399
_cell_volume                      7116.55645526

loop_
_atom_site_label
_atom_site_type_symbol
_atom_site_description
_atom_site_fract_x
_atom_site_fract_y
_atom_site_fract_z
_atom_type_partial_charge
O1    O     O_R   0.541320 0.066090 0.608930 -0.618330
O2    O     O_R   0.458680 0.933910 0.391070 -0.618400
O3    O     O_R   0.458680 0.066090 0.391070 -0.618283
O4    O     O_R   0.541320 0.933910 0.608930 -0.618334
O5    O     O_R   0.041320 0.566090 0.608930 -0.618363
O6    O     O_R   0.958680 0.433910 0.391070 -0.618380
O7    O     O_R   0.958680 0.566090 0.391070 -0.618282
O8    O     O_R   0.041320 0.433910 0.608930 -0.618307
O9    O     O_R   0.572880 0.066110 0.470280 -0.619282
O10   O     O_R   0.427120 0.933890 0.529720 -0.620035
O11   O     O_R   0.427120 0.066110 0.529720 -0.619287
O12   O     O_R   0.572880 0.933890 0.470280 -0.619993
O13   O     O_R   0.072880 0.566110 0.470280 -0.619296
O14   O     O_R   0.927120 0.433890 0.529720 -0.620036
O15   O     O_R   0.927120 0.566110 0.529720 -0.619250
O16   O     O_R   0.072880 0.433890 0.470280 -0.619986
C1    C     C_R   0.574849 0.087403 0.553709 0.865293
C2    C     C_R   0.425003 0.912766 0.446186 0.866116
C3    C     C_R   0.425159 0.087414 0.446294 0.865329
C4    C     C_R   0.575000 0.912769 0.553822 0.866061
C5    C     C_R   0.074859 0.587394 0.553716 0.865370
C6    C     C_R   0.924985 0.412787 0.446171 0.866071
C7    C     C_R   0.925133 0.587383 0.446271 0.865329
C8    C     C_R   0.075024 0.412794 0.553839 0.866115
Zn1   Zn    Zn3+2 0.478910 0.000000 0.592580 0.936599
Zn2   Zn    Zn3+2 0.521090 0.000000 0.407420 0.936564
Zn3   Zn    Zn3+2 0.978910 0.500000 0.592580 0.936630
Zn4   Zn    Zn3+2 0.021090 0.500000 0.407420 0.936696
C9    C     C_R   0.619176 0.865164 0.587212 -0.065350
C10   C     C_R   0.381816 0.136101 0.413568 -0.064414
C11   C     C_R   0.380861 0.865117 0.412840 -0.065433
C12   C     C_R   0.618237 0.136025 0.586468 -0.064404
C13   C     C_R   0.119310 0.365330 0.587322 -0.065451
C14   C     C_R   0.881645 0.635880 0.413410 -0.064413
C15   C     C_R   0.880745 0.365268 0.412735 -0.065395
C16   C     C_R   0.118286 0.635969 0.586507 -0.064448
C17   C     C_R   0.678480 0.806087 0.707347 -0.189896
C18   C     C_R   0.323211 0.196796 0.294434 -0.189841
C19   C     C_R   0.322003 0.805460 0.292858 -0.189919
C20   C     C_R   0.676848 0.196646 0.705652 -0.189867
C21   C     C_R   0.178516 0.306229 0.707549 -0.189960
C22   C     C_R   0.822788 0.696128 0.294052 -0.189899
C23   C     C_R   0.821590 0.306081 0.292571 -0.189935
C24   C     C_R   0.176678 0.696825 0.705680 -0.189936
C25   C     C_R   0.634591 0.850828 0.679684 -0.189512
C26   C     C_R   0.366140 0.150729 0.321242 -0.190289
C27   C     C_R   0.365754 0.850372 0.320458 -0.189564
C28   C     C_R   0.633875 0.150650 0.678797 -0.190293
C29   C     C_R   0.134547 0.350850 0.679776 -0.189432
C30   C     C_R   0.865917 0.650326 0.321032 -0.190191
C31   C     C_R   0.865500 0.350776 0.320292 -0.189498
C32   C     C_R   0.133716 0.650820 0.678798 -0.190291
C33   C     C_R   0.648565 0.836190 0.524264 -0.249555
C34   C     C_R   0.353756 0.166286 0.477220 -0.249009
C35   C     C_R   0.351259 0.836422 0.475728 -0.249658
C36   C     C_R   0.646388 0.166130 0.522862 -0.249037
C37   C     C_R   0.148993 0.336662 0.524517 -0.249666
C38   C     C_R   0.853435 0.665968 0.476949 -0.249071
C39   C     C_R   0.851132 0.336533 0.475582 -0.249656
C40   C     C_R   0.146667 0.665822 0.522986 -0.249170
C41   C     C_R   0.697966 0.799900 0.551817 0.094836
C42   C     C_R   0.304916 0.203684 0.450597 0.094828
C43   C     C_R   0.302004 0.799914 0.448124 0.094805
C44   C     C_R   0.695248 0.203476 0.549546 0.094832
C45   C     C_R   0.198413 0.300435 0.552240 0.094835
C46   C     C_R   0.804459 0.703122 0.450180 0.094862
C47   C     C_R   0.801751 0.300240 0.447913 0.094841
C48   C     C_R   0.195486 0.703207 0.549775 0.094820
C49   C     C_R   0.709291 0.779224 0.643274 0.124479
C50   C     C_R   0.293407 0.224537 0.359201 0.124409
C51   C     C_R   0.291030 0.778810 0.356860 0.124512
C52   C     C_R   0.706721 0.224332 0.640933 0.124411
C53   C     C_R   0.209553 0.279593 0.643620 0.124494
C54   C     C_R   0.792871 0.723805 0.358715 0.124406
C55   C     C_R   0.790610 0.279391 0.356539 0.124487
C56   C     C_R   0.206731 0.724314 0.641053 0.124456
C57   C     C_R   0.732935 0.778805 0.488868 -0.002086
C58   C     C_R   0.270498 0.225274 0.514127 -0.002205
C59   C     C_R   0.266890 0.778974 0.510942 -0.002020
C60   C     C_R   0.729709 0.225037 0.486062 -0.002187
C61   C     C_R   0.233532 0.279483 0.489443 -0.001969
C62   C     C_R   0.769996 0.724687 0.513649 -0.002139
C63   C     C_R   0.766661 0.279253 0.510740 -0.001996
C64   C     C_R   0.230083 0.724621 0.486417 -0.002081
C65   C     C_R   0.271357 0.195139 0.601263 0.202282
C66   C     C_R   0.732078 0.809031 0.401850 0.201777
C67   C     C_R   0.728880 0.194886 0.398956 0.202308
C68   C     C_R   0.267379 0.809568 0.597608 0.201849
C69   C     C_R   0.770968 0.694659 0.600874 0.202228
C70   C     C_R   0.232838 0.309888 0.402598 0.201769
C71   C     C_R   0.229478 0.694224 0.399539 0.202393
C72   C     C_R   0.767343 0.309646 0.597585 0.201850
C73   C     C_R   0.246746 0.227670 0.667559 -0.245904
C74   C     C_R   0.756264 0.776334 0.335260 -0.246685
C75   C     C_R   0.753470 0.227423 0.332641 -0.245934
C76   C     C_R   0.243101 0.777069 0.664268 -0.246699
C77   C     C_R   0.746462 0.727281 0.667202 -0.245959
C78   C     C_R   0.256994 0.277257 0.335929 -0.246744
C79   C     C_R   0.254080 0.726648 0.333149 -0.245979
C80   C     C_R   0.743160 0.277017 0.664234 -0.246726
H1    H     H_    0.250914 0.207277 0.735433 0.152618
H2    H     H_    0.751977 0.796739 0.267384 0.153429
H3    H     H_    0.749317 0.207019 0.264781 0.152641
H4    H     H_    0.247108 0.797782 0.731922 0.153453
H5    H     H_    0.750740 0.706987 0.735147 0.152658
H6    H     H_    0.252809 0.297803 0.268149 0.153466
H7    H     H_    0.250082 0.706045 0.265427 0.152647
H8    H     H_    0.747328 0.297558 0.732009 0.153454
H9    H     H_    0.371036 0.161182 0.548250 0.183784
H10   H     H_    0.631869 0.841253 0.452991 0.183890
H11   H     H_    0.629160 0.161015 0.451814 0.183833
H12   H     H_    0.367702 0.841810 0.547031 0.184170
H13   H     H_    0.870699 0.660976 0.548007 0.183787
H14   H     H_    0.132497 0.341869 0.453196 0.184080
H15   H     H_    0.129638 0.660515 0.451896 0.184067
H16   H     H_    0.867654 0.341743 0.546889 0.184059
H17   H     H_    0.387809 0.128055 0.270643 0.153471
H18   H     H_    0.612027 0.872713 0.729766 0.156033
H19   H     H_    0.612144 0.128030 0.729363 0.153511
H20   H     H_    0.388484 0.872032 0.270425 0.156182
H21   H     H_    0.887680 0.627701 0.270510 0.153482
H22   H     H_    0.111774 0.372516 0.729754 0.156173
H23   H     H_    0.111816 0.628392 0.729301 0.153553
H24   H     H_    0.888224 0.372486 0.270283 0.156112
H25   H     H_    0.687718 0.791770 0.778080 0.135595
H26   H     H_    0.313807 0.211265 0.223778 0.135745
H27   H     H_    0.313033 0.790807 0.222254 0.135624
H28   H     H_    0.686222 0.211118 0.776306 0.135752
H29   H     H_    0.187609 0.291784 0.778237 0.135597
H30   H     H_    0.813329 0.710462 0.223342 0.135741
H31   H     H_    0.812495 0.291629 0.221890 0.135604
H32   H     H_    0.185875 0.711488 0.776264 0.135754
N1    N     N_R   0.549130 0.000000 0.284090 -0.100485
N2    N     N_R   0.450870 0.000000 0.715910 -0.100449
N3    N     N_R   0.049130 0.500000 0.284090 -0.100376
N4    N     N_R   0.950870 0.500000 0.715910 -0.100428
C81   C     C_R   0.627474 0.008812 0.204193 -0.318595
C82   C     C_R   0.372533 0.008919 0.795805 -0.318642
C83   C     C_R   0.127443 0.508969 0.204151 -0.318806
C84   C     C_R   0.872506 0.508779 0.795781 -0.318687
C85   C     C_R   0.606309 0.002253 0.284762 -0.008882
C86   C     C_R   0.393693 0.002319 0.715238 -0.009016
C87   C     C_R   0.106303 0.502295 0.284729 -0.009243
C88   C     C_R   0.893688 0.502219 0.715223 -0.008956
C89   C     C_R   0.510613 0.003702 0.207747 -0.048679
C90   C     C_R   0.489390 0.003670 0.792251 -0.048552
C91   C     C_R   0.010595 0.503708 0.207757 -0.048430
C92   C     C_R   0.989376 0.503784 0.792267 -0.048671
C93   C     C_R   0.528951 0.012159 0.123582 -0.028248
C94   C     C_R   0.471059 0.012162 0.876414 -0.028255
C95   C     C_R   0.028905 0.512250 0.123584 -0.028245
C96   C     C_R   0.971015 0.512265 0.876413 -0.028253
C97   C     C_R   0.589059 0.013948 0.122162 0.160624
C98   C     C_R   0.410953 0.014029 0.877834 0.160652
C99   C     C_R   0.089008 0.514178 0.122146 0.160703
C100  C     C_R   0.910906 0.513965 0.877821 0.160652
C101  C     C_R   0.489525 0.017158 0.041730 0.024483
C102  C     C_R   0.510490 0.017130 0.958263 0.024480
C103  C     C_R   0.989463 0.517221 0.041737 0.024476
C104  C     C_R   0.010427 0.517346 0.958268 0.024458
C105  C     C_R   0.570146 0.022585 0.958929 -0.231910
C106  C     C_R   0.429873 0.022703 0.041062 -0.231886
C107  C     C_R   0.070062 0.523078 0.958933 -0.231916
C108  C     C_R   0.929797 0.522568 0.041065 -0.231881
C109  C     C_R   0.609331 0.021230 0.039251 0.203074
C110  C     C_R   0.390687 0.021370 0.960741 0.203060
C111  C     C_R   0.109255 0.521725 0.039252 0.202974
C112  C     C_R   0.890619 0.521199 0.960729 0.203074
H33   H     H_    0.533578 0.999416 0.784107 0.121996
H34   H     H_    0.466422 0.999489 0.215889 0.122071
H35   H     H_    0.033581 0.499600 0.784174 0.122032
H36   H     H_    0.966410 0.499465 0.215918 0.121953
H37   H     H_    0.364651 0.000106 0.651463 0.153680
H38   H     H_    0.635350 0.000004 0.348536 0.153731
H39   H     H_    0.864656 0.499942 0.651444 0.153706
H40   H     H_    0.135356 0.500026 0.348490 0.153664
H41   H     H_    0.673453 0.010369 0.207251 0.165133
H42   H     H_    0.326556 0.010535 0.792748 0.165139
H43   H     H_    0.173419 0.510574 0.207183 0.165166
H44   H     H_    0.826524 0.510291 0.792710 0.165170
H45   H     H_    0.587679 0.029614 0.897490 0.137492
H46   H     H_    0.412347 0.029789 0.102498 0.137519
H47   H     H_    0.087554 0.530319 0.897493 0.137542
H48   H     H_    0.912249 0.529517 0.102507 0.137464
C113  C     C_3   0.289259 0.125091 0.623525 -0.943637
H49   H     H_    0.290240 0.095152 0.561849 0.252213
H50   H     H_    0.331392 0.124238 0.668718 0.245787
H51   H     H_    0.257568 0.100677 0.659842 0.240227
C114  C     C_3   0.714324 0.879192 0.379982 -0.943203
H52   H     H_    0.672634 0.880321 0.333581 0.242896
H53   H     H_    0.712426 0.908694 0.441761 0.251699
H54   H     H_    0.746629 0.903865 0.345200 0.241829
C115  C     C_3   0.711012 0.124825 0.376747 -0.943791
H55   H     H_    0.709960 0.094920 0.438438 0.252207
H56   H     H_    0.668920 0.123949 0.331448 0.245733
H57   H     H_    0.742762 0.100394 0.340569 0.240308
C116  C     C_3   0.284838 0.879871 0.618942 -0.943723
H58   H     H_    0.326378 0.881329 0.665677 0.242721
H59   H     H_    0.286891 0.909103 0.556979 0.251794
H60   H     H_    0.252290 0.904592 0.653134 0.242040
C117  C     C_3   0.788938 0.624647 0.623244 -0.943785
H61   H     H_    0.790044 0.594685 0.561628 0.252214
H62   H     H_    0.831029 0.623877 0.668547 0.245770
H63   H     H_    0.757218 0.600209 0.659472 0.240350
C118  C     C_3   0.215227 0.380119 0.381015 -0.943677
H64   H     H_    0.173674 0.381406 0.334291 0.242712
H65   H     H_    0.213115 0.409443 0.442875 0.251787
H66   H     H_    0.247720 0.404854 0.346712 0.242080
C119  C     C_3   0.211803 0.624067 0.377692 -0.944473
H67   H     H_    0.210556 0.594372 0.439505 0.252335
H68   H     H_    0.169848 0.622983 0.332061 0.245601
H69   H     H_    0.243765 0.599570 0.342029 0.240552
C120  C     C_3   0.784944 0.379874 0.619182 -0.943755
H70   H     H_    0.826516 0.381156 0.665855 0.242744
H71   H     H_    0.787007 0.409224 0.557323 0.251769
H72   H     H_    0.752470 0.404587 0.653546 0.242041
C121  C     C_3   0.672508 0.026896 0.034393 -0.948003
H73   H     H_    0.680617 0.033291 0.963713 0.241432
H74   H     H_    0.690854 0.070018 0.074186 0.242291
H75   H     H_    0.695134 0.981766 0.061925 0.242341
C122  C     C_3   0.327515 0.027128 0.965597 -0.947928
H76   H     H_    0.319411 0.033564 0.036273 0.241437
H77   H     H_    0.309206 0.070262 0.925771 0.242266
H78   H     H_    0.304849 0.982019 0.938100 0.242356
C123  C     C_3   0.172410 0.527725 0.034417 -0.947506
H79   H     H_    0.190670 0.570660 0.074767 0.242138
H80   H     H_    0.195136 0.482499 0.061392 0.242367
H81   H     H_    0.180486 0.534712 0.963785 0.241390
C124  C     C_3   0.827433 0.526774 0.965572 -0.947979
H82   H     H_    0.819309 0.533138 0.036249 0.241434
H83   H     H_    0.809040 0.569883 0.925777 0.242275
H84   H     H_    0.804860 0.481621 0.938034 0.242352

loop_
_geom_bond_atom_site_label_1
_geom_bond_atom_site_label_2
_geom_bond_distance
_ccdc_geom_bond_type
C33   H10   1.078919 S    
C25   H18   1.083098 S    
C69   C117  1.512803 S    
C96   C104  1.416394 A    
O16   Zn4   1.957264 S    
C101  C102  1.414237 A    
O8    C8    1.307843 A    
C17   C49   1.404682 A    
C35   H12   1.078784 S    
O2    C2    1.307850 A    
Zn4   N3    2.056289 S    
C44   C60   1.416690 A    
C117  H61   1.108888 S    
C54   C74   1.387025 A    
C83   C87   1.382631 A    
C53   C73   1.386781 A    
C24   H32   1.083693 S    
C71   C119  1.512661 S    
C23   C31   1.394106 A    
C92   H35   1.075134 S    
C18   C50   1.404966 A    
O4    Zn1   1.985369 S    
C55   C75   1.386776 A    
C122  H78   1.110336 S    
C5    C16   1.454530 S    
C43   C59   1.415897 A    
C120  H70   1.109913 S    
C121  H75   1.110330 S    
C47   C63   1.415900 A    
C63   C72   1.435688 A    
C10   C34   1.388551 A    
O11   C3    1.313501 A    
C124  H82   1.110790 S    
C62   C69   1.436610 A    
C108  H48   1.076017 S    
Zn3   N4    2.056290 S    
C118  H66   1.111480 S    
C106  H46   1.076031 S    
C60   C67   1.436620 A    
C59   C64   1.421303 A    
C32   H23   1.083152 S    
C113  H50   1.109763 S    
C46   C62   1.416596 A    
C100  C112  1.406324 A    
C13   C29   1.401198 A    
O6    C6    1.307847 A    
C123  H81   1.111302 S    
C45   C53   1.413188 A    
C42   C50   1.413757 A    
C15   C39   1.388643 A    
C116  H59   1.108791 S    
C93   C97   1.425733 A    
O8    Zn3   1.985369 S    
C66   C74   1.394985 A    
C102  C105  1.413824 A    
C39   C47   1.388489 A    
C112  C124  1.512152 S    
C90   C94   1.405210 A    
C65   C73   1.395274 A    
C38   C46   1.388173 A    
O6    Zn4   1.985522 S    
C96   C100  1.425687 A    
C114  H54   1.111622 S    
C99   C111  1.406341 A    
C39   H16   1.078855 S    
C115  H56   1.109744 S    
C35   C43   1.388322 A    
C38   H13   1.078656 S    
C36   C44   1.388077 A    
O13   Zn4   1.957475 S    
O3    C3    1.307633 A    
C64   C71   1.436412 A    
C95   C99   1.425731 A    
O14   Zn3   1.957476 S    
C28   H19   1.083192 S    
C20   C52   1.404942 A    
C36   H11   1.078594 S    
C16   C32   1.401038 A    
C83   H43   1.081547 S    
C109  C121  1.512137 S    
C77   H5    1.085608 S    
C82   C98   1.406399 A    
O15   C7    1.313538 A    
C94   C98   1.425737 A    
O16   C8    1.313477 A    
O5    Zn3   1.985521 S    
C66   C114  1.513128 S    
O1    Zn1   1.985521 S    
C31   H24   1.083036 S    
C117  H62   1.109724 S    
C114  H52   1.110080 S    
C30   H21   1.083182 S    
C33   C41   1.388434 A    
C87   H40   1.081581 S    
C60   C63   1.421433 A    
C110  C122  1.512153 S    
C21   C29   1.394121 A    
C59   C68   1.435677 A    
C18   H26   1.083787 S    
C75   H3    1.085540 S    
O9    Zn2   1.957475 S    
C119  H67   1.108799 S    
C86   H37   1.081571 S    
C17   H25   1.083849 S    
C4    C9    1.454671 S    
C120  H71   1.108836 S    
C65   C113  1.512823 S    
N2    C90   1.341692 A    
C92   C96   1.405263 A    
C80   H8    1.085444 S    
C22   C54   1.404911 A    
O13   C5    1.313521 A    
C48   C64   1.416535 A    
C104  C107  1.413785 A    
C84   C88   1.382644 A    
C108  C112  1.392809 A    
C19   H27   1.083687 S    
C67   C115  1.512821 S    
O2    Zn2   1.985522 S    
C82   C86   1.382592 A    
C73   H1    1.085555 S    
C72   C80   1.394932 A    
C106  C110  1.392731 A    
C113  H51   1.111704 S    
C34   C42   1.388025 A    
C121  H73   1.110786 S    
C118  H64   1.109926 S    
C51   C79   1.386716 A    
O7    Zn4   1.985367 S    
C34   H9    1.078583 S    
O12   Zn2   1.957264 S    
C68   C76   1.394981 A    
C67   C75   1.395247 A    
C20   H28   1.083775 S    
C95   C103  1.416492 A    
C68   C116  1.512953 S    
C116  H60   1.111406 S    
C91   C95   1.405248 A    
C122  H76   1.110802 S    
C6    C15   1.454797 S    
N2    C86   1.351592 A    
C70   C118  1.512953 S    
N1    C89   1.341690 A    
O15   Zn3   1.957262 S    
C103  C104  1.414262 A    
C83   C99   1.406448 A    
C107  C111  1.392771 A    
C115  H57   1.111679 S    
C37   C45   1.388507 A    
O12   C4    1.313465 A    
C123  H79   1.110788 S    
C81   C97   1.406395 A    
C72   C120  1.512968 S    
C22   H30   1.083834 S    
C48   C56   1.413536 A    
Zn1   N2    2.056290 S    
C74   H2    1.085524 S    
N4    C92   1.341812 A    
C22   C30   1.394274 A    
C11   C35   1.388610 A    
C61   C70   1.435648 A    
C58   C65   1.436698 A    
O9    C1    1.313510 A    
C27   H20   1.083003 S    
C84   C100  1.406405 A    
C57   C66   1.435906 A    
N3    C91   1.341811 A    
C76   H4    1.085362 S    
C15   C31   1.401174 A    
C85   H38   1.081572 S    
C117  H63   1.111639 S    
C47   C55   1.413208 A    
C17   C25   1.394102 A    
C82   H42   1.081534 S    
C91   H36   1.075038 S    
O10   Zn1   1.957476 S    
C23   C55   1.404618 A    
C19   C27   1.394083 A    
C52   C80   1.386964 A    
C120  H72   1.111465 S    
C41   C49   1.413370 A    
C20   C28   1.394226 A    
C41   C57   1.415992 A    
C81   C85   1.382581 A    
C89   H34   1.075066 S    
C119  H68   1.109548 S    
C7    C14   1.454460 S    
C13   C37   1.388630 A    
C94   C102  1.416397 A    
C97   C109  1.406266 A    
C103  C108  1.413855 A    
O1    C1    1.307647 A    
C42   C58   1.416723 A    
O3    Zn2   1.985367 S    
C69   C77   1.395210 A    
C84   H44   1.081543 S    
C43   C51   1.413145 A    
C16   C40   1.388518 A    
C14   C30   1.401169 A    
C37   H14   1.078892 S    
C121  H74   1.110471 S    
C79   H7    1.085458 S    
N1    C85   1.351601 A    
C8    C13   1.454800 S    
C78   H6    1.085450 S    
C10   C26   1.401084 A    
C122  H77   1.110492 S    
C71   C79   1.395166 A    
O14   C6    1.313472 A    
C23   H31   1.083765 S    
N4    C88   1.351616 A    
Zn2   N1    2.056289 S    
C56   C76   1.386942 A    
C21   H29   1.083773 S    
C58   C61   1.421416 A    
C24   C32   1.394229 A    
C113  H49   1.108916 S    
C12   C28   1.401085 A    
C9    C33   1.388655 A    
C57   C62   1.421475 A    
O10   C2    1.313443 A    
O7    C7    1.307610 A    
C29   H22   1.083037 S    
C101  C106  1.413846 A    
C88   H39   1.081563 S    
N3    C87   1.351567 A    
C123  H80   1.110570 S    
C12   C36   1.388554 A    
C118  H65   1.108857 S    
C44   C52   1.413713 A    
C107  H47   1.076087 S    
C105  H45   1.075979 S    
C116  H58   1.109853 S    
C105  C109  1.392731 A    
C18   C26   1.394242 A    
C111  C123  1.512097 S    
C21   C53   1.404617 A    
C124  H84   1.110342 S    
O4    C4    1.307793 A    
C26   H17   1.083208 S    
C81   H41   1.081533 S    
C40   C48   1.388006 A    
C124  H83   1.110483 S    
C115  H55   1.108905 S    
O5    C5    1.307674 A    
C90   H33   1.075054 S    
C9    C25   1.401239 A    
C14   C38   1.388480 A    
C1    C12   1.454461 S    
O11   Zn1   1.957262 S    
C45   C61   1.415842 A    
C98   C110  1.406288 A    
C40   H15   1.078537 S    
C11   C27   1.401078 A    
C2    C11   1.454737 S    
C24   C56   1.404905 A    
C3    C10   1.454422 S    
C93   C101  1.416399 A    
C119  H69   1.111517 S    
C70   C78   1.394902 A    
C89   C93   1.405209 A    
C50   C78   1.386962 A    
C49   C77   1.386769 A    
C114  H53   1.108921 S    
C19   C51   1.404595 A    
C46   C54   1.413752 A    
