data_mof_unit_pretest_214.cif
_audit_creation_date              2012-12-10T20:25:44-0500
_audit_creation_method            fapswitch 2.2
_symmetry_space_group_name_H-M    P1
_symmetry_Int_Tables_number       1
_space_group_crystal_system       triclinic
_cell_length_a                    8.617682
_cell_length_b                    10.73212
_cell_length_c                    9.925859
_cell_angle_alpha                 89.327053
_cell_angle_beta                  98.45351
_cell_angle_gamma                 92.165437
_cell_volume                      907.363073321

loop_
_atom_site_label
_atom_site_type_symbol
_atom_type_description
_atom_site_fract_x
_atom_site_fract_y
_atom_site_fract_z
_atom_type_partial_charge
C1    C     C_R   0.514128 0.261268 0.501501 0.951047
C2    C     C_R   0.365889 0.470293 0.913847 0.174647
C3    C     C_3   0.245205 0.364018 0.894791 -0.369393
C4    C     C_R   0.201451 0.499775 0.464395 1.000218
C5    C     C_3   0.271342 0.347625 0.050241 -0.321007
C6    C     C_R   0.502696 0.739613 0.499760 0.949079
C7    C     C_R   0.798577 0.500838 0.535640 1.008310
C8    C     C_2   0.036311 0.498260 0.445545 -0.287437
C9    C     C_2   0.963731 0.503541 0.554580 -0.301823
C10   C     C_R   0.518544 0.063839 0.620711 -0.001947
C11   C     C_R   0.534689 0.129634 0.501388 -0.116694
C12   C     C_R   0.525245 0.936146 0.378715 -0.166261
C13   C     C_R   0.547746 0.064574 0.379594 -0.048373
C14   C     C_2   0.266728 0.248352 0.816888 0.964157
C15   C     C_2   0.124156 0.350558 0.114087 1.010606
C16   C     C_2   0.599785 0.123393 0.256565 0.980275
C17   C     C_2   0.770470 0.864745 0.763595 0.959524
C18   C     C_2   0.777858 0.134144 0.758411 0.952165
C19   C     C_2   0.749140 0.635814 0.160304 0.958337
C20   C     C_R   0.511392 0.871758 0.499597 -0.103138
C21   C     C_R   0.512782 0.936221 0.620433 0.050605
C22   C     C_3   0.613282 0.925541 0.757610 0.204359
C23   C     C_3   0.619696 0.068579 0.758176 -0.344631
C24   C     C_R   0.368098 0.465980 0.055250 0.134019
C25   C     C_R   0.621920 0.555688 0.084125 -0.038695
C26   C     C_R   0.623780 0.548542 0.941131 -0.052133
Cl1   Cl    Cl    0.502167 0.859558 0.881213 -0.556825
H1    H     H_    0.974716 0.491683 0.342184 0.185629
H2    H     H_    0.745246 0.247159 0.179377 0.350019
H3    H     H_    0.972408 0.819572 0.880600 0.369501
H4    H     H_    0.936662 0.257515 0.852111 0.344635
H5    H     H_    0.968524 0.712155 0.169788 0.367119
H6    H     H_    0.721910 0.587672 0.896111 0.206008
H7    H     H_    0.130227 0.403740 0.855217 0.167368
H8    H     H_    0.346531 0.269250 0.088936 0.216452
H9    H     H_    0.025233 0.510955 0.657941 0.174579
H10   H     H_    0.530500 0.886000 0.285426 0.234523
H11   H     H_    0.557879 0.107754 0.837238 0.243392
H12   H     H_    0.279082 0.061183 0.820530 0.380794
H13   H     H_    0.906678 0.413067 0.106773 0.336561
N1    N     N_R   0.498950 0.499140 0.142680 -0.152884
N2    N     N_R   0.498950 0.499180 0.857030 -0.125684
O1    O     O_R   0.500020 0.316790 0.614690 -0.596417
O2    O     O_R   0.290085 0.134441 0.885184 -0.750196
O3    O     O_2   0.107388 0.279316 0.208318 -0.578669
O4    O     O_R   0.004134 0.429075 0.062450 -0.782076
O5    O     O_2   0.543640 0.086341 0.143093 -0.570173
O6    O     O_R   0.719662 0.215883 0.270568 -0.754444
O7    O     O_2   0.811421 0.820646 0.661940 -0.628611
O8    O     O_R   0.870516 0.861534 0.887806 -0.728927
O9    O     O_2   0.858739 0.114086 0.669968 -0.581545
O10   O     O_R   0.829825 0.219626 0.861379 -0.770571
O11   O     O_2   0.725734 0.696579 0.257386 -0.571292
O12   O     O_R   0.500000 0.316760 0.385350 -0.620236
O13   O     O_R   0.892774 0.653022 0.111648 -0.782637
O14   O     O_R   0.271760 0.500010 0.587850 -0.601800
O15   O     O_R   0.271740 0.499970 0.358500 -0.621986
O16   O     O_R   0.500000 0.683240 0.614650 -0.606465
O17   O     O_R   0.499980 0.683210 0.385310 -0.584760
O18   O     O_R   0.728260 0.500030 0.641500 -0.630082
O19   O     O_R   0.728240 0.499990 0.412150 -0.603714
O20   O     O_2   0.237207 0.250267 0.692827 -0.574360
Zn1   Zn    Zn3+2 0.500010 0.500020 0.653130 1.027015
Zn2   Zn    Zn3+2 0.499990 0.499980 0.346870 1.024941

loop_
_geom_bond_atom_site_label_1
_geom_bond_atom_site_label_2
_ccdc_geom_bond_type
C17   O8    S    
C4    O15   A    
C9    H9    S    
C1    O12   A    
H12   O2    S    
C19   O13   S    
C10   C23   S    
O19   Zn2   S    
C23   H11   S    
C6    C20   S    
C6    O16   A    
C26   H6    S    
C17   C22   S    
C3    H7    S    
H4    O10   S    
C4    C8    S    
C19   O11   D    
C5    C24   S    
C2    C3    S    
H3    O8    S    
O14   Zn1   S    
O1    Zn1   S    
C21   C22   S    
C4    O14   A    
H13   O4    S    
C24   N1    A    
C11   C13   A    
C12   C20   A    
O17   Zn2   S    
C3    C14   S    
O12   Zn2   S    
C2    N2    A    
O18   Zn1   S    
C19   C25   S    
C5    H8    S    
C16   O5    D    
C25   C26   A    
C18   O9    D    
N1    Zn2   S    
C22   Cl1   S    
C10   C21   A    
C2    C24   A    
C8    H1    S    
C5    C15   S    
C10   C11   A    
C15   O3    D    
H2    O6    S    
C18   O10   S    
C18   C23   S    
C14   O20   D    
C7    O18   A    
O16   Zn1   S    
C12   C13   A    
C26   N2    A    
O15   Zn2   S    
C14   O2    S    
C13   C16   S    
C25   N1    A    
C12   H10   S    
C7    C9    S    
N2    Zn1   S    
C22   C23   S    
C7    O19   A    
H5    O13   S    
C15   O4    S    
C20   C21   A    
C16   O6    S    
C6    O17   A    
C1    O1    A    
C17   O7    D    
C8    C9    D    
C3    C5    S    
C1    C11   S    
