data_mof_unit_pretest_724.cif
_audit_creation_date              2012-12-10T17:11:01-0500
_audit_creation_method            fapswitch 2.2
_symmetry_space_group_name_H-M    P1
_symmetry_Int_Tables_number       1
_space_group_crystal_system       triclinic
_cell_length_a                    11.694409
_cell_length_b                    13.014386
_cell_length_c                    13.446529
_cell_angle_alpha                 92.69062
_cell_angle_beta                  76.268942
_cell_angle_gamma                 100.772665
_cell_volume                      1952.97129549

loop_
_atom_site_label
_atom_site_type_symbol
_atom_type_description
_atom_site_fract_x
_atom_site_fract_y
_atom_site_fract_z
_atom_type_partial_charge
C1    C     C_R   0.522128 0.701089 0.500654 0.825271
C2    C     C_R   0.469973 0.537284 0.966052 0.057397
C3    C     C_R   0.466927 0.484447 0.872045 -0.093413
C4    C     C_R   0.542198 0.508925 0.028264 -0.016658
C5    C     C_R   0.630798 0.447869 0.984768 -0.165765
C6    C     C_R   0.621135 0.390088 0.894297 0.299812
C7    C     C_R   0.530230 0.401020 0.844710 0.343001
C8    C     C_R   0.525427 0.535367 0.133286 0.329158
C9    C     C_R   0.710153 0.476708 0.138269 0.325069
C10   C     C_R   0.401047 0.516578 0.806709 -0.083421
C11   C     C_R   0.460432 0.184466 0.504594 -0.081688
C12   C     C_R   0.436206 0.498269 0.695855 0.923489
C13   C     C_R   0.536231 0.815124 0.498727 -0.111634
C14   C     C_R   0.656752 0.988242 0.470170 -0.260533
C15   C     C_R   0.649849 0.879903 0.474096 0.405051
C16   C     C_R   0.432387 0.858818 0.519206 -0.261484
C17   C     C_R   0.438288 0.966527 0.511769 0.089853
C18   C     C_R   0.552494 0.031266 0.488706 0.101227
C19   C     C_R   0.562337 0.138827 0.485361 -0.307273
C20   C     C_R   0.345028 0.121521 0.526275 0.350919
C21   C     C_R   0.333415 0.011307 0.529385 -0.099941
C22   C     C_R   0.952889 0.612417 0.582252 0.334052
C23   C     C_R   0.477130 0.298819 0.500805 0.888120
C24   C     C_R   0.831617 0.598469 0.575369 -0.003682
C25   C     C_R   0.852685 0.450120 0.468996 0.058348
C26   C     C_R   0.973290 0.459896 0.474257 -0.114700
C27   C     C_R   0.025222 0.542171 0.530154 0.022152
C28   C     C_R   0.147955 0.550960 0.532409 0.050546
C29   C     C_R   0.162770 0.399598 0.427609 0.639523
C30   C     C_R   0.042440 0.388496 0.424579 -0.244156
C31   C     C_R   0.564704 0.507355 0.303604 0.822166
C32   C     C_R   0.723059 0.442896 0.035904 -0.020857
C33   C     C_R   0.603444 0.510208 0.190292 -0.280054
C34   C     C_R   0.325104 0.589733 0.841239 0.382964
C35   C     C_R   0.329115 0.641599 0.933984 -0.247828
C36   C     C_R   0.405774 0.620547 0.991718 -0.108482
Cu1   Cu    Cu3+1 0.386470 0.492430 0.492410 1.020615
Cu2   Cu    Cu3+1 0.613530 0.507570 0.507590 0.985887
H1    H     H_    0.743684 0.039041 0.452032 0.138901
H2    H     H_    0.346802 0.807457 0.542182 0.217363
H3    H     H_    0.188861 0.612969 0.576109 0.208700
H4    H     H_    0.003507 0.323724 0.382262 0.173742
H5    H     H_    0.775255 0.651946 0.614737 0.135901
H6    H     H_    0.813646 0.387854 0.424313 0.149023
H7    H     H_    0.417307 0.674460 0.053368 0.194291
H8    H     H_    0.278690 0.703839 0.958411 0.151505
H9    H     H_    0.650636 0.187517 0.467458 0.172527
N1    N     N_R   0.215880 0.481050 0.481000 -0.252485
N2    N     N_R   0.784100 0.518950 0.519000 -0.199288
O1    O     O_R   0.419710 0.645650 0.494620 -0.605380
O2    O     O_R   0.611450 0.658430 0.507430 -0.540235
O3    O     O_R   0.357340 0.490460 0.641450 -0.533238
O4    O     O_R   0.549080 0.503250 0.654260 -0.586449
O5    O     O_R   0.388550 0.341570 0.492570 -0.527796
O6    O     O_R   0.580290 0.354350 0.505380 -0.599689
O7    O     O_R   0.450920 0.496750 0.345740 -0.584855
O8    O     O_R   0.642660 0.509540 0.358550 -0.568290
O9    O     O_3   0.801293 0.473483 0.186292 -0.663288
H10   H     H_    0.814408 0.540492 0.223665 0.340302
O10   O     O_3   0.246264 0.170168 0.545370 -0.685346
H11   H     H_    0.175723 0.121390 0.532315 0.327537
C37   C     C_2   0.212010 0.945318 0.553529 0.342038
H12   H     H_    0.144503 0.964623 0.618622 0.091340
O11   O     O_2   0.184915 0.872314 0.498132 -0.505888
O12   O     O_3   0.752169 0.836374 0.452915 -0.713004
H13   H     H_    0.823517 0.892915 0.437285 0.330471
O13   O     O_3   0.222040 0.323423 0.377639 -0.702144
H14   H     H_    0.306033 0.354878 0.350686 0.368376
O14   O     O_3   0.001245 0.693180 0.638667 -0.722175
H15   H     H_    0.938813 0.734906 0.669516 0.321624
O15   O     O_3   0.693915 0.317322 0.860069 -0.746596
H16   H     H_    0.706548 0.311379 0.784613 0.331568
C38   C     C_2   0.837611 0.411301 0.980814 0.563115
H17   H     H_    0.871744 0.426980 0.899582 0.072964
O16   O     O_2   0.895015 0.367715 0.025116 -0.470784
O17   O     O_3   0.424569 0.574033 0.182377 -0.707384
H18   H     H_    0.449336 0.630532 0.229242 0.325443
O18   O     O_3   0.257000 0.616899 0.778888 -0.727355
H19   H     H_    0.210401 0.669805 0.814263 0.329891
O19   O     O_3   0.498892 0.329563 0.771877 -0.739629
H20   H     H_    0.519223 0.261434 0.784117 0.341623

loop_
_geom_bond_atom_site_label_1
_geom_bond_atom_site_label_2
_ccdc_geom_bond_type
C38   H17   S    
C14   C18   A    
C35   C36   A    
C4    C8    A    
Cu2   N2    S    
C11   C19   A    
C26   C27   A    
C29   C30   A    
Cu1   Cu2   S    
C9    O9    S    
C3    C7    A    
C5    C6    A    
C19   H9    S    
C15   O12   S    
C28   H3    S    
C8    O17   S    
C18   C19   A    
C34   C35   A    
C37   O11   D    
C9    C32   A    
C14   H1    S    
C29   O13   S    
Cu1   O7    S    
Cu2   O6    S    
C16   C17   A    
C31   C33   S    
C31   O7    A    
C20   O10   S    
C1    O1    A    
C22   O14   S    
C12   O4    A    
C5    C32   A    
C9    C33   A    
C38   O16   D    
C25   H6    S    
C12   O3    A    
C6    O15   S    
C11   C20   A    
C29   N1    A    
O13   H14   S    
O17   H18   S    
C32   C38   S    
Cu1   O3    S    
O18   H19   S    
O19   H20   S    
Cu2   O2    S    
O9    H10   S    
C17   C21   A    
O10   H11   S    
C2    C4    A    
C37   H12   S    
Cu2   O8    S    
C17   C18   A    
C36   H7    S    
C10   C34   A    
Cu1   N1    S    
C1    O2    A    
C21   C37   S    
C10   C12   S    
C16   H2    S    
Cu1   O5    S    
C26   C30   A    
C22   C27   A    
C13   C15   A    
C22   C24   A    
C1    C13   S    
C23   O5    A    
C2    C36   A    
C24   N2    A    
C28   N1    A    
C4    C5    A    
C23   O6    A    
C6    C7    A    
C31   O8    A    
C2    C3    A    
C25   C26   A    
O15   H16   S    
C3    C10   A    
C34   O18   S    
Cu1   O1    S    
Cu2   O4    S    
C11   C23   S    
C8    C33   A    
O14   H15   S    
C25   N2    A    
C20   C21   A    
O12   H13   S    
C13   C16   A    
C27   C28   A    
C24   H5    S    
C14   C15   A    
C30   H4    S    
C35   H8    S    
C7    O19   S    
