data_mof_unit_pretest_768.cif
_audit_creation_date              2012-12-11T20:06:49-0500
_audit_creation_method            fapswitch 2.2
_symmetry_space_group_name_H-M    P1
_symmetry_Int_Tables_number       1
_space_group_crystal_system       triclinic
_cell_length_a                    8.531817
_cell_length_b                    16.681359
_cell_length_c                    18.885298
_cell_angle_alpha                 113.210144
_cell_angle_beta                  92.121897
_cell_angle_gamma                 82.834738
_cell_volume                      2450.75520779

loop_
_atom_site_label
_atom_site_type_symbol
_atom_type_description
_atom_site_fract_x
_atom_site_fract_y
_atom_site_fract_z
_atom_type_partial_charge
Ba1   Ba    Ba6+2 0.333520 0.539550 0.472180 1.811401
Ba2   Ba    Ba6+2 0.856270 0.460520 0.527840 1.887509
C1    C     C_3   0.062685 0.820748 0.288780 -0.329437
C2    C     C_3   0.036126 0.748975 0.317247 0.355900
C3    C     C_3   0.019090 0.261629 0.272617 0.366395
C4    C     C_3   0.006848 0.208068 0.185997 -0.239638
C5    C     C_3   0.645842 0.244516 0.686068 0.288118
C6    C     C_3   0.709624 0.250516 0.763985 -0.277105
C7    C     C_3   0.181067 0.229112 0.643315 0.581684
C8    C     C_3   0.195423 0.142523 0.653556 -0.244425
C9    C     C_R   0.539938 0.443267 0.033964 0.039144
C10   C     C_R   0.447935 0.419835 0.081276 0.006321
C11   C     C_R   0.384842 0.374506 0.913738 0.383113
C12   C     C_3   0.483208 0.706977 0.308056 0.358304
C13   C     C_R   0.496103 0.431534 0.956720 -0.056269
C14   C     C_R   0.315794 0.384115 0.849019 -0.135303
C15   C     C_R   0.373210 0.436505 0.815765 -0.138959
C16   C     C_R   0.507655 0.479759 0.848291 0.018208
C17   C     C_R   0.568149 0.477777 0.919768 -0.009052
C18   C     C_R   0.301089 0.445752 0.750381 -0.033424
C19   C     C_R   0.365579 0.499200 0.719729 0.164982
C20   C     C_R   0.514505 0.531570 0.741099 -0.070654
C21   C     C_R   0.579929 0.525887 0.810501 -0.081202
C22   C     C_R   0.676175 0.483198 0.066598 0.033462
C23   C     C_3   0.463441 0.720813 0.231864 -0.243509
C24   C     C_R   0.726330 0.489042 0.142207 0.004839
C25   C     C_R   0.634796 0.460255 0.187593 -0.087525
C26   C     C_R   0.499070 0.423230 0.153264 0.005881
C27   C     C_R   0.708542 0.569760 0.846631 0.045793
C28   C     C_R   0.768368 0.567208 0.915763 -0.016705
C29   C     C_R   0.701746 0.520772 0.953399 0.018762
C30   C     C_R   0.762746 0.517232 0.024055 0.032918
C31   C     C_R   0.909061 0.545456 0.053362 -0.082738
C32   C     C_R   0.870073 0.521456 0.170909 -0.031523
C33   C     C_R   0.962593 0.545538 0.123853 -0.072482
C34   C     C_3   0.507556 0.765861 0.753508 0.232257
C35   C     C_R   0.920732 0.526291 0.244506 0.044224
C36   C     C_R   0.834534 0.493941 0.288061 -0.230457
C37   C     C_R   0.683711 0.466812 0.263914 0.022348
C38   C     C_2   0.392083 0.240254 0.502592 -0.134138
C39   C     C_R   0.793451 0.752516 0.522396 -0.250067
C40   C     C_2   0.236325 0.121746 0.428568 -0.021876
C41   C     C_2   0.253618 0.207476 0.453114 0.050453
C42   C     C_2   0.519481 0.185393 0.508914 -0.003962
C43   C     C_3   0.518081 0.085340 0.467150 -0.021067
C44   C     C_3   0.348168 0.059610 0.452575 -0.031498
C45   C     C_3   0.453740 0.761455 0.829649 0.369070
C46   C     C_2   0.633369 0.023376 0.493329 0.375650
C47   C     C_2   0.580596 0.968886 0.523345 -0.159461
C48   C     C_R   0.818942 0.931723 0.589090 0.150640
C49   C     C_R   0.687325 0.903158 0.543454 0.022233
C50   C     C_R   0.940801 0.872110 0.596888 -0.137166
C51   C     C_R   0.930465 0.781895 0.562856 0.009594
C52   C     C_R   0.670989 0.812022 0.512120 0.021324
C53   C     C_3   0.573773 0.229076 0.247474 0.987435
C54   C     C_3   0.681493 0.144207 0.200579 -0.284866
C55   C     C_3   0.941578 0.797038 0.732309 0.299486
C56   C     C_3   0.993532 0.883909 0.787901 -0.380263
H1    H     H_    0.084452 0.765750 0.376145 0.102624
H2    H     H_    0.335749 0.800371 0.846187 0.017570
H3    H     H_    0.436773 0.694195 0.821532 0.009693
H4    H     H_    0.711138 0.141365 0.142895 0.136174
H5    H     H_    0.622358 0.084929 0.190382 0.158689
H6    H     H_    0.791468 0.136810 0.231247 0.040401
H7    H     H_    0.890034 0.766055 0.766494 0.168525
H8    H     H_    0.846891 0.808078 0.694754 -0.066722
H9    H     H_    0.179034 0.843944 0.308270 0.121814
H10   H     H_    0.067410 0.910929 0.757614 0.105365
H11   H     H_    0.064148 0.873524 0.834793 0.143863
H12   H     H_    0.889362 0.932689 0.813807 0.109930
H13   H     H_    0.971407 0.878278 0.310403 0.183969
H14   H     H_    0.906690 0.263089 0.299625 0.048068
H15   H     H_    0.038980 0.326950 0.277685 0.007051
H16   H     H_    0.019474 0.136546 0.172627 0.139397
H17   H     H_    0.892705 0.229949 0.165744 0.054612
H18   H     H_    0.092522 0.221424 0.151067 0.200048
H19   H     H_    0.059479 0.794722 0.224818 0.119896
H20   H     H_    0.537348 0.666912 0.186314 0.075320
H21   H     H_    0.571503 0.307300 0.694189 -0.030361
H22   H     H_    0.573388 0.188881 0.663154 0.003478
H23   H     H_    0.776979 0.307979 0.789648 0.134676
H24   H     H_    0.610688 0.258250 0.803258 0.126654
H25   H     H_    0.788556 0.189711 0.757361 0.133062
H26   H     H_    0.302286 0.246679 0.642652 -0.380100
H27   H     H_    0.121627 0.220315 0.587954 0.039654
H28   H     H_    0.244377 0.088099 0.600284 0.051573
H29   H     H_    0.077998 0.128955 0.666485 0.152357
H30   H     H_    0.395996 0.663782 0.309456 0.098088
H31   H     H_    0.276032 0.145225 0.701540 0.137359
H32   H     H_    0.222897 0.344751 0.822245 0.155978
H33   H     H_    0.428797 0.396002 0.181202 0.192080
H34   H     H_    0.763065 0.608629 0.822882 0.151227
H35   H     H_    0.079935 0.563297 0.139589 0.115643
H36   H     H_    0.332522 0.400298 0.064203 0.139978
H37   H     H_    0.864557 0.605420 0.940157 0.077445
H38   H     H_    0.600406 0.670234 0.307681 -0.052659
H39   H     H_    0.988475 0.564519 0.021255 0.067047
H40   H     H_    0.141385 0.095462 0.389776 0.127975
H41   H     H_    0.041764 0.896728 0.631154 0.065005
H42   H     H_    0.395462 0.310768 0.528390 0.065430
H43   H     H_    0.780208 0.683375 0.500579 0.043664
H44   H     H_    0.455014 0.969482 0.530581 0.060268
H45   H     H_    0.339842 0.715172 0.212492 0.138077
H46   H     H_    0.407191 0.764980 0.715289 0.056550
O1    O     O_2   0.402610 0.439360 0.314250 -0.416350
O2    O     O_3   0.074637 0.740600 0.693882 -0.550938
O3    O     O_3   0.462381 0.786989 0.373296 -0.612507
O4    O     O_2   0.787080 0.560670 0.685800 -0.395759
O5    O     O_3   0.541120 0.553770 0.595290 -0.462335
O6    O     O_3   0.080800 0.396070 0.612520 -0.419037
O7    O     O_3   0.632375 0.700435 0.712389 -0.617241
O8    O     O_3   0.164600 0.390590 0.443970 -0.425573
O9    O     O_3   0.682580 0.347920 0.567870 -0.471400
O10   O     O_2   0.846028 0.199761 0.496055 -0.342984
O11   O     O_3   0.773994 0.229459 0.636350 -0.559435
O12   O     O_3   0.648560 0.446300 0.404730 -0.464732
O13   O     O_3   0.025080 0.609480 0.556050 -0.415913
O14   O     O_2   0.948320 0.280590 0.426090 -0.458263
O15   O     O_3   0.145524 0.227579 0.306494 -0.522850
O16   O     O_2   0.968067 0.455491 0.753760 -0.463716
O17   O     O_3   0.088973 0.293317 0.703755 -0.601798
O18   O     O_3   0.108870 0.604000 0.387500 -0.507071
O19   O     O_2   0.241263 0.516871 0.249205 -0.496966
O20   O     O_3   0.657596 0.301974 0.263962 -0.715475
O21   O     O_3   0.120622 0.670899 0.266747 -0.637177
O22   O     O_2   0.241370 0.719440 0.573960 -0.484040
O23   O     O_3   0.507090 0.652150 0.432150 -0.512597
O24   O     O_2   0.342080 0.808026 0.505541 -0.483675
P1    P     P_3+3 0.582960 0.413890 0.320860 1.108462
P2    P     P_3+3 0.071690 0.707860 0.593450 1.079014
P3    P     P_3+3 0.495514 0.765786 0.457163 0.941180
P4    P     P_3+3 0.606720 0.586180 0.679160 1.061276
P5    P     P_3+3 0.702470 0.237405 0.551264 1.123637
P6    P     P_3+3 0.096101 0.580628 0.288633 0.914725
P7    P     P_3+3 0.129814 0.277145 0.408451 1.115999
P8    P     P_3+3 0.113050 0.396812 0.705768 1.059345
S1    S     S_3+6 0.579622 0.803062 0.911136 -0.104312
O25   O     O_2   0.549441 0.901682 0.946496 -0.268155
O26   O     O_2   0.541040 0.767850 0.969609 -0.298648
O27   O     O_3   0.770996 0.772099 0.885527 -0.576899
H47   H     H_    0.829549 0.795154 0.934316 0.365197
S2    S     S_3+6 0.410620 0.227741 0.186050 -0.091115
O28   O     O_2   0.338693 0.144238 0.168476 -0.291749
O29   O     O_2   0.291492 0.305915 0.222771 -0.362529
O30   O     O_3   0.473614 0.227457 0.102878 -0.539272
H48   H     H_    0.380517 0.215807 0.069032 0.400123
S3    S     S_3+6 0.529561 0.217926 0.332839 -0.101093
O31   O     O_2   0.453562 0.303772 0.389866 -0.345450
O32   O     O_2   0.426433 0.145929 0.314826 -0.352063
O33   O     O_3   0.698418 0.189610 0.369212 -0.534856
H49   H     H_    0.716482 0.124966 0.342901 0.355335
C57   C     C_3   0.859246 0.741849 0.318241 -0.317143
H50   H     H_    0.819213 0.707093 0.258541 0.082599
H51   H     H_    0.837180 0.705586 0.354331 0.030767
H52   H     H_    0.787954 0.806905 0.343961 0.161484
S4    S     S_3+6 0.235071 0.551808 0.675971 -0.079702
O34   O     O_2   0.238804 0.499864 0.590834 -0.283427
O35   O     O_2   0.071406 0.571676 0.708316 -0.246681
O36   O     O_3   0.295108 0.646591 0.697841 -0.612929
H53   H     H_    0.321783 0.644942 0.647514 0.360725
C58   C     C_3   0.912866 0.482054 0.357316 -0.230017
H54   H     H_    0.891227 0.421869 0.363116 0.066829
H55   H     H_    0.042400 0.467127 0.350256 0.143904
H56   H     H_    0.877173 0.539661 0.411072 0.107202
S5    S     S_3+6 0.366094 0.273161 0.921350 -0.112969
O37   O     O_2   0.221199 0.281209 0.967720 -0.296721
O38   O     O_2   0.350168 0.203596 0.842167 -0.334252
O39   O     O_3   0.528773 0.242335 0.961871 -0.504365
H57   H     H_    0.537658 0.177366 0.941391 0.379496
S6    S     S_3+6 0.838306 0.011190 0.469060 -0.122233
O40   O     O_2   0.858717 0.033941 0.400974 -0.323678
O41   O     O_2   0.923143 0.069786 0.537167 -0.330238
O42   O     O_3   0.926586 0.909152 0.447832 -0.596459
H58   H     H_    0.039195 0.915866 0.460704 0.356240
C59   C     C_3   0.505543 0.808969 0.235484 -0.317385
H59   H     H_    0.439176 0.865015 0.282355 0.164309
H60   H     H_    0.633498 0.813407 0.243643 0.125747
H61   H     H_    0.474010 0.815105 0.180110 0.151906
C60   C     C_3   0.551983 0.857256 0.768303 -0.323983
H62   H     H_    0.655697 0.872173 0.805854 0.171171
H63   H     H_    0.578386 0.861745 0.712877 0.068263
H64   H     H_    0.451790 0.908333 0.796680 0.112107

loop_
_geom_bond_atom_site_label_1
_geom_bond_atom_site_label_2
_ccdc_geom_bond_type
O21   P6    S    
C53   C54   S    
Ba2   O5    S    
C14   H32   S    
S5    O37   D    
C32   C35   A    
O6    P8    S    
S3    O31   D    
C55   H8    S    
C17   C29   A    
C58   H54   S    
Ba2   O14   S    
C5    C6    S    
C59   H60   S    
C29   C30   A    
O42   H58   S    
C42   C43   S    
C13   C17   A    
C52   P3    S    
S1    O26   D    
Ba2   O8    S    
C24   C25   A    
C27   C28   A    
C2    O21   S    
C10   C26   A    
C6    H24   S    
C21   C27   A    
S4    O34   D    
S3    O32   D    
C35   C36   A    
C22   C24   A    
C16   C17   A    
C3    H14   S    
Ba1   P1    S    
C40   H40   S    
Ba1   O8    S    
O30   H48   S    
C28   C29   A    
Ba2   O9    S    
S6    O40   D    
O22   P2    D    
C6    H25   S    
C9    C22   A    
C15   C18   A    
C34   C45   S    
C32   C33   A    
C40   C44   S    
C5    O11   S    
C6    H23   S    
Ba1   O18   S    
O18   P6    S    
Ba1   O5    S    
C45   H2    S    
Ba2   O12   S    
C24   C32   A    
C36   C58   S    
C8    H28   S    
O12   P1    S    
O36   H53   S    
C8    H31   S    
C25   C37   A    
C14   C15   A    
C47   C49   S    
C48   C50   A    
C54   H6    S    
Ba1   O12   S    
C7    C8    S    
C60   H64   S    
C7    H27   S    
C55   O2    S    
S5    O38   D    
C53   S2    S    
O9    P5    S    
C19   C20   A    
S2    O30   S    
C10   H36   S    
C34   C60   S    
C9    C13   A    
O5    P4    S    
C12   H38   S    
C58   H55   S    
Ba2   O13   S    
C4    H16   S    
C59   H61   S    
C33   H35   S    
C36   C37   A    
C2    C57   S    
S1    O27   S    
C1    H9    S    
C8    H29   S    
O19   P6    D    
C16   C21   A    
C4    H17   S    
S3    O33   S    
O27   H47   S    
O3    P3    S    
Ba1   P2    S    
C55   H7    S    
C47   H44   S    
C56   H12   S    
O1    P1    D    
O11   P5    S    
C48   C49   A    
C43   C44   S    
O15   P7    S    
C23   H20   S    
O16   P8    D    
C1    H13   S    
C22   C30   A    
C45   H3    S    
C28   H37   S    
C23   C59   S    
Ba2   P4    S    
C59   H59   S    
C57   H52   S    
C45   S1    S    
C34   O7    S    
C15   C16   A    
C54   H5    S    
Ba1   O13   S    
C11   S5    S    
Ba1   O22   S    
C41   P7    S    
O13   P2    S    
C18   P8    S    
C39   C51   A    
C46   S6    S    
C53   S3    S    
C56   H10   S    
O39   H57   S    
C3    O15   S    
S5    O39   S    
C11   C13   A    
C19   S4    S    
C54   H4    S    
C40   C41   D    
O8    P7    S    
C1    C2    S    
C1    H19   S    
O24   P3    D    
C12   O3    S    
C58   H56   S    
C50   C51   A    
C5    H21   S    
C43   C46   S    
C42   P5    S    
O2    P2    S    
C53   O20   S    
Ba2   O6    S    
C20   P4    S    
C18   C19   A    
C35   P6    S    
S4    O36   S    
C23   H45   S    
Ba1   O23   S    
C57   H51   S    
C38   H42   S    
C9    C10   A    
C56   H11   S    
C4    H18   S    
C37   P1    S    
S1    O25   D    
C50   H41   S    
O33   H49   S    
C34   H46   S    
C49   C52   A    
C38   C41   S    
S4    O35   D    
C12   H30   S    
C7    O17   S    
C12   C23   S    
C30   C31   A    
C55   C56   S    
C3    C4    S    
S6    O41   D    
C46   C47   D    
Ba1   Ba2   S    
C2    H1    S    
Ba2   O4    S    
C31   C33   A    
O10   P5    D    
C39   H43   S    
O20   P1    S    
C26   H33   S    
C31   H39   S    
O17   P8    S    
C3    H15   S    
O23   P3    S    
C39   C52   A    
O4    P4    D    
C7    H26   S    
C60   H62   S    
O7    P4    S    
C38   C42   D    
C57   H50   S    
C11   C14   A    
C25   C26   A    
S2    O28   D    
C20   C21   A    
C51   P2    S    
C27   H34   S    
S2    O29   D    
O14   P7    D    
Ba1   O1    S    
C5    H22   S    
C60   H63   S    
S6    O42   S    
