data_mof_unit_pretest_981.cif
_audit_creation_date              2012-10-26T18:29:01-0400
_audit_creation_method            fapswitch 2.2
_symmetry_space_group_name_H-M    P1
_symmetry_Int_Tables_number       1
_space_group_crystal_system       triclinic
_cell_length_a                    11.754316
_cell_length_b                    13.003563
_cell_length_c                    15.860622
_cell_angle_alpha                 93.561999
_cell_angle_beta                  73.328961
_cell_angle_gamma                 99.345902
_cell_volume                      2291.22958111

loop_
_atom_site_label
_atom_site_type_symbol
_atom_type_description
_atom_site_fract_x
_atom_site_fract_y
_atom_site_fract_z
_atom_type_partial_charge
C1    C     C_R   0.520444 0.700474 0.501476 0.555143
C2    C     C_R   0.367702 0.018014 0.461008 0.058775
C3    C     C_R   0.625299 0.873974 0.530599 -0.127127
C4    C     C_R   0.375045 0.126040 0.468915 -0.127133
C5    C     C_R   0.446639 0.861213 0.481397 -0.080550
C6    C     C_R   0.553991 0.138826 0.517773 -0.080526
C7    C     C_R   0.453576 0.969419 0.484660 0.005217
C8    C     C_R   0.547056 0.030624 0.514508 0.005100
C9    C     C_R   0.933497 0.592999 0.586570 -0.146354
C10   C     C_R   0.066408 0.406847 0.413517 -0.147249
C11   C     C_R   0.817391 0.584344 0.577659 0.028123
C12   C     C_R   0.479632 0.299528 0.498393 0.555815
C13   C     C_R   0.182457 0.415358 0.422560 0.027781
C14   C     C_R   0.863338 0.460064 0.461276 0.213196
C15   C     C_R   0.136799 0.540300 0.538424 0.213451
C16   C     C_R   0.426722 0.494601 0.668114 0.548314
C17   C     C_R   0.573333 0.505876 0.331956 0.548078
C18   C     C_R   0.982244 0.466263 0.468203 -0.020957
C19   C     C_R   0.017740 0.533749 0.531740 -0.020502
C20   C     C_R   0.383472 0.488648 0.764660 0.002534
C21   C     C_R   0.616875 0.517069 0.235904 0.003022
C22   C     C_R   0.226789 0.444233 0.899292 -0.128855
C23   C     C_R   0.355082 0.471186 0.087482 -0.126055
C24   C     C_R   0.771148 0.576480 0.103886 -0.128949
C25   C     C_R   0.263093 0.453809 0.808150 -0.121812
C26   C     C_R   0.735931 0.558313 0.193974 -0.121590
C27   C     C_R   0.466999 0.513555 0.813299 -0.123922
C28   C     C_R   0.533887 0.493757 0.186782 -0.122443
C29   C     C_R   0.433634 0.502053 0.905162 0.036001
C30   C     C_R   0.565110 0.517272 0.096905 0.036580
C31   C     C_R   0.310931 0.466934 0.947833 0.050643
C32   C     C_R   0.686784 0.557117 0.055339 0.050611
C33   C     C_R   0.518634 0.522002 0.955329 0.036445
C34   C     C_R   0.641507 0.560712 0.916655 -0.125132
C35   C     C_R   0.479267 0.502551 0.047490 0.036459
C36   C     C_2   0.729289 0.039947 0.573777 0.572531
C37   C     C_2   0.271326 0.960100 0.425414 0.573312
C38   C     C_2   0.172711 0.611228 0.605556 0.609699
C39   C     C_2   0.828037 0.390758 0.392995 0.609468
C40   C     C_R   0.273118 0.453759 0.038443 -0.123019
C41   C     C_R   0.723202 0.578336 0.965955 -0.121968
C42   C     C_R   0.468631 0.186281 0.495734 -0.023833
C43   C     C_R   0.531693 0.813732 0.503802 -0.024127
C44   C     C_R   0.632865 0.982025 0.538238 0.058687
Cu1   Cu    Cu3+1 0.386820 0.492450 0.493500 1.002022
Cu2   Cu    Cu3+1 0.613180 0.507550 0.506500 1.001981
H1    H     H_    0.179116 0.428805 0.071868 0.120346
H2    H     H_    0.197647 0.431571 0.771764 0.180470
H3    H     H_    0.133102 0.416818 0.931760 0.117984
H4    H     H_    0.863938 0.608079 0.072451 0.117735
H5    H     H_    0.316899 0.460691 0.157221 0.109501
H6    H     H_    0.678491 0.580222 0.848323 0.105675
H7    H     H_    0.626362 0.187470 0.536803 0.212105
H8    H     H_    0.374462 0.812580 0.462140 0.212912
H9    H     H_    0.310028 0.163603 0.450437 0.158312
H10   H     H_    0.690163 0.836405 0.549264 0.158332
H11   H     H_    0.775619 0.147519 0.660127 0.350713
H12   H     H_    0.816066 0.608921 0.933588 0.119424
H13   H     H_    0.225118 0.852649 0.338934 0.350605
H14   H     H_    0.170571 0.633716 0.732788 0.332326
H15   H     H_    0.831150 0.371296 0.265352 0.332322
H16   H     H_    0.245629 0.369242 0.380223 0.130679
H17   H     H_    0.754117 0.630243 0.620169 0.129822
H18   H     H_    0.956106 0.646213 0.636542 0.140872
H19   H     H_    0.043720 0.353522 0.363637 0.141071
H20   H     H_    0.445014 0.457212 0.220794 0.117393
H21   H     H_    0.558417 0.539758 0.777116 0.120097
H22   H     H_    0.801018 0.578726 0.230915 0.178272
N1    N     N_R   0.216750 0.481110 0.483710 -0.257917
N2    N     N_R   0.783250 0.518890 0.516290 -0.257717
O1    O     O_R   0.419950 0.645670 0.495380 -0.473668
O2    O     O_R   0.702456 0.114401 0.641141 -0.705202
O3    O     O_2   0.169052 0.980721 0.452683 -0.469183
O4    O     O_R   0.298255 0.885782 0.357946 -0.705163
O5    O     O_2   0.212250 0.702619 0.588251 -0.527286
O6    O     O_R   0.146382 0.577031 0.691673 -0.724303
O7    O     O_2   0.787641 0.299216 0.409015 -0.526877
O8    O     O_R   0.855321 0.426840 0.307338 -0.723245
O9    O     O_R   0.580050 0.354330 0.504620 -0.473320
O10   O     O_R   0.611110 0.658410 0.506370 -0.517140
O11   O     O_R   0.388890 0.341590 0.493630 -0.516945
O12   O     O_R   0.350820 0.490050 0.621260 -0.471183
O13   O     O_R   0.649180 0.509950 0.378740 -0.471419
O14   O     O_R   0.541970 0.502800 0.632250 -0.522185
O15   O     O_R   0.458030 0.497200 0.367750 -0.521658
O16   O     O_2   0.831517 0.019209 0.546560 -0.469438

loop_
_geom_bond_atom_site_label_1
_geom_bond_atom_site_label_2
_ccdc_geom_bond_type
C40   H1    S    
C30   C32   A    
C21   C26   A    
Cu1   O1    S    
C9    H18   S    
C14   C18   A    
C28   H20   S    
C2    C7    A    
C37   O4    S    
C11   N2    A    
C7    C8    A    
C38   O6    S    
Cu1   Cu2   S    
C15   C19   A    
C3    C43   A    
C1    O1    A    
C4    C42   A    
C30   C35   A    
C17   O15   A    
C39   O7    D    
C24   C26   A    
C41   H12   S    
C11   H17   S    
Cu2   O9    S    
C27   C29   A    
C20   C25   A    
C23   C40   A    
C12   O9    A    
C29   C33   A    
C16   O14   A    
C31   C40   A    
C18   C19   A    
C12   C42   S    
C14   C39   S    
C1    C43   S    
C13   H16   S    
Cu1   O12   S    
C22   C25   A    
C32   C41   A    
C5    C43   A    
C14   N2    A    
C34   C41   A    
C9    C19   A    
C38   O5    D    
C24   H4    S    
C15   N1    A    
C3    C44   A    
C22   C31   A    
Cu1   N1    S    
C39   O8    S    
C5    H8    S    
C5    C7    A    
C6    C8    A    
C36   O16   D    
H14   O6    S    
C17   C21   S    
C17   O13   A    
Cu1   O15   S    
C24   C32   A    
C15   C38   S    
C3    H10   S    
C23   H5    S    
H13   O4    S    
H15   O8    S    
C16   C20   S    
C16   O12   A    
C33   C34   A    
C9    C11   A    
C25   H2    S    
C22   H3    S    
Cu2   O14   S    
C21   C28   A    
C23   C35   A    
C4    H9    S    
C36   C44   S    
C6    H7    S    
C10   H19   S    
C37   O3    D    
Cu1   O11   S    
C8    C44   A    
C10   C13   A    
C20   C27   A    
C34   H6    S    
C26   H22   S    
C28   C30   A    
C29   C31   A    
Cu2   O10   S    
C2    C37   S    
C13   N1    A    
C10   C18   A    
C2    C4    A    
C33   C35   A    
C12   O11   A    
H11   O2    S    
Cu2   N2    S    
C27   H21   S    
Cu2   O13   S    
C6    C42   A    
C1    O10   A    
C36   O2    S    
