data_mof_unit_pretest_1573.cif
_audit_creation_date              2012-12-10T17:37:58-0500
_audit_creation_method            fapswitch 2.2
_symmetry_space_group_name_H-M    P1
_symmetry_Int_Tables_number       1
_space_group_crystal_system       triclinic
_cell_length_a                    36.886477
_cell_length_b                    30.133424
_cell_length_c                    21.314967
_cell_angle_alpha                 90.003535
_cell_angle_beta                  54.801418
_cell_angle_gamma                 90.006959
_cell_volume                      19360.0724145

loop_
_atom_site_label
_atom_site_type_symbol
_atom_type_description
_atom_site_fract_x
_atom_site_fract_y
_atom_site_fract_z
_atom_type_partial_charge
C1    C     C_R   0.086799 0.500001 0.409752 0.883257
C2    C     C_R   0.913201 0.499997 0.590240 0.883157
C3    C     C_R   0.586799 0.000001 0.409752 0.883257
C4    C     C_R   0.413201 0.999997 0.590240 0.883157
C5    C     C_3   0.000913 0.500535 0.688429 0.017465
C6    C     C_3   0.999049 0.500532 0.311607 0.017453
C7    C     C_3   0.500913 0.000535 0.688429 0.017465
C8    C     C_3   0.499049 0.000532 0.311607 0.017453
C9    C     C_R   0.342532 0.470404 0.115301 -0.260496
C10   C     C_R   0.657465 0.470358 0.884686 -0.260585
C11   C     C_R   0.842532 0.970404 0.115301 -0.260496
C12   C     C_R   0.157465 0.970358 0.884686 -0.260585
C13   C     C_R   0.365270 0.497849 0.134602 -0.062845
C14   C     C_R   0.634730 0.497800 0.865386 -0.062826
C15   C     C_R   0.865270 0.997849 0.134602 -0.062845
C16   C     C_R   0.134730 0.997800 0.865386 -0.062826
C17   C     C_R   0.342467 0.525593 0.198828 -0.251992
C18   C     C_R   0.657536 0.525544 0.801159 -0.251897
C19   C     C_R   0.842467 0.025593 0.198828 -0.251992
C20   C     C_R   0.157536 0.025544 0.801159 -0.251897
C21   C     C_R   0.296343 0.526686 0.243905 0.117697
C22   C     C_R   0.703660 0.526641 0.756080 0.117643
C23   C     C_R   0.796343 0.026686 0.243905 0.117697
C24   C     C_R   0.203660 0.026641 0.756080 0.117643
C25   C     C_R   0.273153 0.498588 0.225362 0.058149
C26   C     C_R   0.726847 0.498547 0.774623 0.058151
C27   C     C_R   0.773153 0.998588 0.225362 0.058149
C28   C     C_R   0.226847 0.998547 0.774623 0.058151
C29   C     C_R   0.296362 0.470042 0.161183 0.123223
C30   C     C_R   0.703635 0.470000 0.838802 0.123270
C31   C     C_R   0.796362 0.970041 0.161183 0.123223
C32   C     C_R   0.203635 0.970000 0.838802 0.123270
C33   C     C_R   0.273074 0.555539 0.306780 -0.215494
C34   C     C_R   0.726932 0.555495 0.693205 -0.215498
C35   C     C_R   0.773074 0.055539 0.306780 -0.215494
C36   C     C_R   0.226932 0.055495 0.693205 -0.215498
C37   C     C_R   0.226865 0.556688 0.351273 -0.201941
C38   C     C_R   0.773140 0.556651 0.648714 -0.201892
C39   C     C_R   0.726865 0.056688 0.351273 -0.201941
C40   C     C_R   0.273140 0.056651 0.648714 -0.201891
C41   C     C_R   0.203579 0.528617 0.333752 0.112669
C42   C     C_R   0.796423 0.528585 0.666237 0.112672
C43   C     C_R   0.703579 0.028617 0.333752 0.112669
C44   C     C_R   0.296423 0.028585 0.666237 0.112672
C45   C     C_R   0.000797 0.500061 0.620886 0.874004
C46   C     C_R   0.999171 0.500059 0.379145 0.873986
C47   C     C_R   0.500797 0.000061 0.620886 0.874004
C48   C     C_R   0.499171 0.000059 0.379145 0.873986
C49   C     C_R   0.226746 0.499088 0.270964 0.056664
C50   C     C_R   0.773254 0.499054 0.729023 0.056657
C51   C     C_R   0.726746 0.999088 0.270964 0.056664
C52   C     C_R   0.273254 0.999054 0.729023 0.056657
C53   C     C_R   0.203513 0.470033 0.253838 0.125731
C54   C     C_R   0.796484 0.470005 0.746152 0.125722
C55   C     C_R   0.703513 0.970033 0.253838 0.125731
C56   C     C_R   0.296484 0.970005 0.746152 0.125722
C57   C     C_R   0.226808 0.441441 0.190577 -0.218044
C58   C     C_R   0.773186 0.441411 0.809412 -0.218054
C59   C     C_R   0.726808 0.941441 0.190577 -0.218044
C60   C     C_R   0.273186 0.941411 0.809412 -0.218054
C61   C     C_R   0.273048 0.441676 0.144110 -0.216196
C62   C     C_R   0.726946 0.441638 0.855876 -0.216191
C63   C     C_R   0.773048 0.941676 0.144110 -0.216196
C64   C     C_R   0.226946 0.941639 0.855876 -0.216191
C65   C     C_R   0.157462 0.529299 0.378223 -0.239383
C66   C     C_R   0.842541 0.529276 0.621770 -0.239374
C67   C     C_R   0.657462 0.029299 0.378223 -0.239383
C68   C     C_R   0.342541 0.029276 0.621770 -0.239374
C69   C     C_R   0.134634 0.499965 0.361761 -0.063779
C70   C     C_R   0.865366 0.499948 0.638236 -0.063746
C71   C     C_R   0.634634 0.999965 0.361761 -0.063779
C72   C     C_R   0.365366 0.999948 0.638236 -0.063746
C73   C     C_R   0.157341 0.470206 0.300361 -0.263040
C74   C     C_R   0.842656 0.470186 0.699634 -0.263021
C75   C     C_R   0.657341 0.970206 0.300361 -0.263040
C76   C     C_R   0.342656 0.970186 0.699634 -0.263021
C77   C     C_R   0.999998 0.413223 0.000052 0.871231
C78   C     C_R   0.499998 0.913223 0.000052 0.871231
C79   C     C_R   0.999996 0.501610 0.878450 0.889078
C80   C     C_R   0.000003 0.501647 0.121551 0.889002
C81   C     C_R   0.499996 0.001610 0.878450 0.889078
C82   C     C_R   0.500003 0.001647 0.121551 0.889002
C83   C     C_R   0.000002 0.586825 0.999985 0.893698
C84   C     C_R   0.500002 0.086825 0.999985 0.893698
C85   C     C_3   0.037252 0.479632 0.692823 -0.201962
C86   C     C_3   0.962758 0.479559 0.307136 -0.202186
C87   C     C_3   0.537253 0.979632 0.692823 -0.201962
C88   C     C_3   0.462758 0.979559 0.307136 -0.202186
C89   C     C_R   0.500018 0.413069 0.999981 0.879142
C90   C     C_R   0.000018 0.913069 0.999981 0.879142
C91   C     C_R   0.413110 0.498004 0.086905 0.885032
C92   C     C_R   0.586889 0.497966 0.913094 0.884891
C93   C     C_R   0.913110 0.998004 0.086905 0.885032
C94   C     C_R   0.086890 0.997966 0.913094 0.884891
C95   C     C_R   0.500003 0.586855 0.999999 0.894256
C96   C     C_R   0.000003 0.086855 0.999999 0.894256
C97   C     C_R   0.527532 0.657480 0.014361 -0.256765
C98   C     C_R   0.472465 0.657476 0.985680 -0.256801
C99   C     C_R   0.027532 0.157480 0.014361 -0.256765
C100  C     C_R   0.972465 0.157476 0.985680 -0.256801
C101  C     C_R   0.500000 0.634704 0.000013 -0.065184
C102  C     C_R   0.000000 0.134704 0.000013 -0.065184
C103  C     C_R   0.471741 0.703632 0.986786 0.121339
C104  C     C_R   0.528248 0.703637 0.013285 0.121324
C105  C     C_R   0.971741 0.203632 0.986786 0.121339
C106  C     C_R   0.028248 0.203637 0.013285 0.121324
C107  C     C_R   0.499993 0.726839 0.000043 0.057651
C108  C     C_R   0.999993 0.226839 0.000043 0.057651
C109  C     C_R   0.443197 0.726924 0.975188 -0.215614
C110  C     C_R   0.556788 0.726934 0.024898 -0.215629
C111  C     C_R   0.943197 0.226924 0.975188 -0.215614
C112  C     C_R   0.056788 0.226934 0.024898 -0.215629
C113  C     C_R   0.942501 0.273159 0.976865 -0.217458
C114  C     C_R   0.057479 0.273170 0.023244 -0.217451
C115  C     C_R   0.442501 0.773159 0.976865 -0.217458
C116  C     C_R   0.557479 0.773170 0.023244 -0.217451
C117  C     C_R   0.970765 0.296457 0.989142 0.121590
C118  C     C_R   0.029213 0.296463 0.010978 0.121659
C119  C     C_R   0.470764 0.796457 0.989142 0.121590
C120  C     C_R   0.529213 0.796463 0.010978 0.121659
C121  C     C_3   0.000404 0.459048 0.771045 -0.170873
C122  C     C_3   0.999659 0.459065 0.228864 -0.170790
C123  C     C_3   0.500404 0.959048 0.771045 -0.170873
C124  C     C_3   0.499659 0.959065 0.228864 -0.170790
C125  C     C_R   0.999990 0.273256 0.000056 0.057821
C126  C     C_R   0.499990 0.773256 0.000056 0.057821
C127  C     C_R   0.970506 0.342612 0.990411 -0.258803
C128  C     C_R   0.029472 0.342618 0.009720 -0.258935
C129  C     C_R   0.470505 0.842612 0.990411 -0.258803
C130  C     C_R   0.529472 0.842618 0.009720 -0.258935
C131  C     C_R   0.999989 0.365384 0.000066 -0.054785
C132  C     C_R   0.499989 0.865384 0.000066 -0.054785
C133  C     C_R   0.527604 0.342479 0.930724 -0.257412
C134  C     C_R   0.472442 0.342479 0.069225 -0.257323
C135  C     C_R   0.027604 0.842479 0.930724 -0.257412
C136  C     C_R   0.972442 0.842479 0.069225 -0.257323
C137  C     C_R   0.500025 0.365242 0.999974 -0.060284
C138  C     C_R   0.000025 0.865242 0.999974 -0.060284
C139  C     C_R   0.471713 0.296330 0.069577 0.119953
C140  C     C_R   0.528327 0.296331 0.930371 0.119999
C141  C     C_R   0.971713 0.796330 0.069577 0.119953
C142  C     C_R   0.028327 0.796331 0.930371 0.119999
C143  C     C_R   0.500018 0.273129 0.999974 0.057896
C144  C     C_R   0.000018 0.773129 0.999974 0.057896
C145  C     C_R   0.443122 0.273039 0.138113 -0.215058
C146  C     C_R   0.556914 0.273041 0.861836 -0.215053
C147  C     C_R   0.943122 0.773039 0.138113 -0.215058
C148  C     C_R   0.056914 0.773041 0.861836 -0.215053
C149  C     C_R   0.942431 0.726807 0.137837 -0.213271
C150  C     C_R   0.057596 0.726809 0.862112 -0.213270
C151  C     C_R   0.442431 0.226807 0.137837 -0.213271
C152  C     C_R   0.557596 0.226809 0.862112 -0.213270
C153  C     C_R   0.970742 0.703520 0.069191 0.116273
C154  C     C_R   0.029281 0.703521 0.930757 0.116279
C155  C     C_R   0.470742 0.203520 0.069191 0.116273
C156  C     C_R   0.529281 0.203521 0.930757 0.116279
C157  C     C_3   0.000234 0.501529 0.810792 -0.046153
C158  C     C_3   0.999754 0.501555 0.189219 -0.046127
C159  C     C_3   0.500234 0.001529 0.810792 -0.046153
C160  C     C_3   0.499754 0.001555 0.189219 -0.046127
C161  C     C_R   0.000014 0.726721 0.999974 0.059854
C162  C     C_R   0.500014 0.226721 0.999974 0.059854
C163  C     C_R   0.970490 0.657375 0.068450 -0.254014
C164  C     C_R   0.029526 0.657377 0.931498 -0.254014
C165  C     C_R   0.470490 0.157375 0.068450 -0.254014
C166  C     C_R   0.529525 0.157377 0.931498 -0.254014
C167  C     C_R   0.000005 0.634628 0.999974 -0.067547
C168  C     C_R   0.500005 0.134628 0.999974 -0.067547
C169  C     C_3   0.036567 0.521885 0.734085 0.011265
C170  C     C_3   0.963371 0.521824 0.265973 0.011239
C171  C     C_3   0.536567 0.021885 0.734085 0.011264
C172  C     C_3   0.463371 0.021824 0.265973 0.011239
C173  C     C_3   0.000813 0.543159 0.728020 -0.216023
C174  C     C_3   0.999077 0.543165 0.272112 -0.215892
C175  C     C_3   0.500813 0.043159 0.728020 -0.216023
C176  C     C_3   0.499078 0.043165 0.272112 -0.215892
C177  C     C_3   0.964042 0.522431 0.805992 -0.186499
C178  C     C_3   0.035897 0.522525 0.194092 -0.186558
C179  C     C_3   0.464042 0.022431 0.805992 -0.186499
C180  C     C_3   0.535898 0.022525 0.194092 -0.186558
C181  C     C_3   0.964138 0.479919 0.765190 -0.137008
C182  C     C_3   0.035874 0.480006 0.234798 -0.136887
C183  C     C_3   0.464138 0.979919 0.765190 -0.137008
C184  C     C_3   0.535874 0.980006 0.234798 -0.136887
H1    H     H_    0.000180 0.424729 0.790264 0.136074
H2    H     H_    0.999942 0.424747 0.209572 0.136039
H3    H     H_    0.500180 0.924729 0.790264 0.136074
H4    H     H_    0.499942 0.924747 0.209572 0.136039
H5    H     H_    0.209343 0.579328 0.399534 0.161989
H6    H     H_    0.790665 0.579292 0.600454 0.161992
H7    H     H_    0.709343 0.079327 0.399534 0.161989
H8    H     H_    0.290665 0.079292 0.600454 0.161992
H9    H     H_    0.139234 0.551838 0.426623 0.165013
H10   H     H_    0.860771 0.551816 0.573371 0.164998
H11   H     H_    0.639234 0.051838 0.426623 0.165013
H12   H     H_    0.360771 0.051816 0.573371 0.164998
H13   H     H_    0.138989 0.447844 0.288347 0.143309
H14   H     H_    0.861006 0.447829 0.711649 0.143308
H15   H     H_    0.638989 0.947844 0.288347 0.143309
H16   H     H_    0.361006 0.947829 0.711649 0.143308
H17   H     H_    0.209269 0.419116 0.176865 0.146839
H18   H     H_    0.790723 0.419090 0.823125 0.146838
H19   H     H_    0.709269 0.919116 0.176865 0.146839
H20   H     H_    0.290723 0.919090 0.823125 0.146838
H21   H     H_    0.290572 0.419554 0.095127 0.149033
H22   H     H_    0.709419 0.419516 0.904859 0.149032
H23   H     H_    0.790572 0.919554 0.095127 0.149033
H24   H     H_    0.209420 0.919516 0.904859 0.149032
H25   H     H_    0.548902 0.639188 0.024820 0.150500
H26   H     H_    0.451098 0.639181 0.975210 0.150494
H27   H     H_    0.048902 0.139188 0.024820 0.150500
H28   H     H_    0.951098 0.139181 0.975210 0.150494
H29   H     H_    0.421292 0.709385 0.965243 0.148869
H30   H     H_    0.578695 0.709398 0.034833 0.148871
H31   H     H_    0.921292 0.209385 0.965243 0.148869
H32   H     H_    0.078695 0.209398 0.034833 0.148872
H33   H     H_    0.920071 0.290692 0.968186 0.147188
H34   H     H_    0.079909 0.290706 0.031929 0.147190
H35   H     H_    0.420071 0.790692 0.968186 0.147188
H36   H     H_    0.579909 0.790706 0.031929 0.147190
H37   H     H_    0.948105 0.360908 0.982433 0.146916
H38   H     H_    0.051874 0.360919 0.017694 0.146854
H39   H     H_    0.448105 0.860908 0.982433 0.146916
H40   H     H_    0.551874 0.860919 0.017694 0.146854
H41   H     H_    0.549010 0.360778 0.877649 0.150217
H42   H     H_    0.451036 0.360775 0.122299 0.150258
H43   H     H_    0.049009 0.860778 0.877649 0.150217
H44   H     H_    0.951036 0.860775 0.122299 0.150258
H45   H     H_    0.067210 0.462373 0.644947 0.149071
H46   H     H_    0.932827 0.462245 0.354975 0.149102
H47   H     H_    0.567210 0.962373 0.644947 0.149071
H48   H     H_    0.432827 0.962245 0.354975 0.149102
H49   H     H_    0.421178 0.290575 0.191740 0.150552
H50   H     H_    0.578861 0.290579 0.808208 0.150559
H51   H     H_    0.921178 0.790575 0.191740 0.150552
H52   H     H_    0.078861 0.790579 0.808208 0.150559
H53   H     H_    0.919966 0.709267 0.191253 0.153748
H54   H     H_    0.080059 0.709270 0.808695 0.153767
H55   H     H_    0.419966 0.209267 0.191253 0.153748
H56   H     H_    0.580059 0.209270 0.808695 0.153767
H57   H     H_    0.948065 0.639069 0.121112 0.166208
H58   H     H_    0.051949 0.639071 0.878837 0.166183
H59   H     H_    0.448065 0.139069 0.121112 0.166208
H60   H     H_    0.551949 0.139071 0.878837 0.166183
H61   H     H_    0.001151 0.577618 0.709207 0.162831
H62   H     H_    0.998682 0.577622 0.290994 0.162816
H63   H     H_    0.501151 0.077618 0.709207 0.162831
H64   H     H_    0.498682 0.077622 0.290994 0.162816
H65   H     H_    0.934159 0.539836 0.853743 0.154012
H66   H     H_    0.065754 0.539985 0.146377 0.153964
H67   H     H_    0.434159 0.039836 0.853743 0.154012
H68   H     H_    0.565754 0.039985 0.146377 0.153964
H69   H     H_    0.934349 0.462657 0.776339 0.128047
H70   H     H_    0.065684 0.462786 0.223626 0.128025
H71   H     H_    0.434350 0.962657 0.776339 0.128047
H72   H     H_    0.565684 0.962786 0.223626 0.128025
H73   H     H_    0.360860 0.448936 0.065419 0.148455
H74   H     H_    0.639134 0.448892 0.934571 0.148416
H75   H     H_    0.860860 0.948936 0.065419 0.148455
H76   H     H_    0.139134 0.948892 0.934571 0.148416
H77   H     H_    0.360717 0.546961 0.212458 0.152198
H78   H     H_    0.639289 0.546913 0.787531 0.152235
H79   H     H_    0.860717 0.046961 0.212458 0.152198
H80   H     H_    0.139288 0.046913 0.787531 0.152235
H81   H     H_    0.290609 0.577338 0.321242 0.151572
H82   H     H_    0.709399 0.577292 0.678742 0.151571
H83   H     H_    0.790609 0.077339 0.321242 0.151572
H84   H     H_    0.209399 0.077292 0.678742 0.151571
O1    O     O_R   0.066070 0.537300 0.433950 -0.620510
O2    O     O_R   0.933930 0.537300 0.566050 -0.620566
O3    O     O_R   0.566070 0.037300 0.433950 -0.620510
O4    O     O_R   0.433930 0.037300 0.566050 -0.620566
O5    O     O_R   0.433940 0.499980 0.118610 -0.623307
O6    O     O_R   0.566060 0.499980 0.881390 -0.623325
O7    O     O_R   0.933940 0.999980 0.118610 -0.623307
O8    O     O_R   0.066060 0.999980 0.881390 -0.623325
O9    O     O_R   0.433890 0.499970 0.013630 -0.621652
O10   O     O_R   0.566110 0.499970 0.986370 -0.621623
O11   O     O_R   0.933890 0.999970 0.013630 -0.621652
O12   O     O_R   0.066110 0.999970 0.986370 -0.621623
O13   O     O_R   0.500060 0.566050 0.052450 -0.621123
O14   O     O_R   0.499940 0.566050 0.947550 -0.621123
O15   O     O_R   0.000060 0.066050 0.052450 -0.621123
O16   O     O_R   0.999940 0.066050 0.947550 -0.621123
O17   O     O_R   0.066060 0.462690 0.433950 -0.620614
O18   O     O_R   0.933940 0.462690 0.566050 -0.620655
O19   O     O_R   0.566060 0.962690 0.433950 -0.620614
O20   O     O_R   0.433940 0.962690 0.566050 -0.620655
O21   O     O_R   0.999990 0.537300 0.593030 -0.624021
O22   O     O_R   0.000010 0.537300 0.406970 -0.624052
O23   O     O_R   0.499990 0.037300 0.593030 -0.624021
O24   O     O_R   0.500010 0.037300 0.406970 -0.624052
O25   O     O_R   0.999980 0.462680 0.593030 -0.627062
O26   O     O_R   0.000020 0.462680 0.406970 -0.627063
O27   O     O_R   0.499980 0.962680 0.593030 -0.627062
O28   O     O_R   0.500020 0.962680 0.406970 -0.627063
O29   O     O_R   0.962690 0.433950 0.037260 -0.624150
O30   O     O_R   0.037310 0.433950 0.962740 -0.624111
O31   O     O_R   0.462690 0.933950 0.037260 -0.624150
O32   O     O_R   0.537310 0.933950 0.962740 -0.624111
O33   O     O_R   0.962690 0.500030 0.944250 -0.639309
O34   O     O_R   0.037310 0.500030 0.055750 -0.639310
O35   O     O_R   0.462690 0.000030 0.944250 -0.639309
O36   O     O_R   0.537310 0.000030 0.055750 -0.639310
O37   O     O_R   0.037300 0.500060 0.869680 -0.558966
O38   O     O_R   0.962700 0.500060 0.130320 -0.559049
O39   O     O_R   0.537300 0.000060 0.869680 -0.558966
O40   O     O_R   0.462700 0.000060 0.130320 -0.559049
O41   O     O_R   0.962680 0.566120 0.037310 -0.608088
O42   O     O_R   0.037320 0.566120 0.962690 -0.608098
O43   O     O_R   0.462680 0.066120 0.037310 -0.608088
O44   O     O_R   0.537320 0.066120 0.962690 -0.608098
O45   O     O_R   0.499970 0.433870 0.052530 -0.625332
O46   O     O_R   0.500030 0.433870 0.947470 -0.625303
O47   O     O_R   0.999970 0.933870 0.052530 -0.625332
O48   O     O_R   0.000030 0.933870 0.947470 -0.625303
Zn1   Zn    Zn3+2 0.000000 0.549810 0.500000 0.964887
Zn2   Zn    Zn3+2 0.500000 0.049810 0.500000 0.964887
Zn3   Zn    Zn3+2 0.000000 0.450170 0.500000 0.955213
Zn4   Zn    Zn3+2 0.500000 0.950170 0.500000 0.955213
Zn5   Zn    Zn3+2 0.950180 0.500030 0.049790 0.989931
Zn6   Zn    Zn3+2 0.049820 0.500030 0.950210 0.989960
Zn7   Zn    Zn3+2 0.450180 0.000030 0.049790 0.989931
Zn8   Zn    Zn3+2 0.549820 0.000030 0.950210 0.989960
Zn9   Zn    Zn3+2 0.500020 0.499960 0.070090 0.957124
Zn10  Zn    Zn3+2 0.499980 0.499960 0.929910 0.957122
Zn11  Zn    Zn3+2 0.000020 0.999960 0.070090 0.957124
Zn12  Zn    Zn3+2 0.999980 0.999960 0.929910 0.957122
C185  C     C_2   0.077224 0.545577 0.716448 0.876635
O49   O     O_2   0.103508 0.560418 0.651690 -0.638693
O50   O     O_R   0.085245 0.550876 0.773231 -0.778731
H85   H     H_    0.114128 0.567764 0.753463 0.330224
C186  C     C_2   0.922700 0.545477 0.283614 0.876726
O51   O     O_2   0.896377 0.560253 0.348407 -0.638723
O52   O     O_R   0.914740 0.550867 0.226770 -0.778766
H86   H     H_    0.885852 0.567737 0.246538 0.330229
C187  C     C_2   0.577224 0.045576 0.716448 0.876635
O53   O     O_2   0.603508 0.060418 0.651690 -0.638693
O54   O     O_R   0.585245 0.050876 0.773231 -0.778731
H87   H     H_    0.614128 0.067764 0.753463 0.330224
C188  C     C_2   0.422700 0.045477 0.283614 0.876726
O55   O     O_2   0.396377 0.060253 0.348407 -0.638723
O56   O     O_R   0.414740 0.050867 0.226770 -0.778766
H88   H     H_    0.385852 0.067737 0.246538 0.330229

loop_
_geom_bond_atom_site_label_1
_geom_bond_atom_site_label_2
_ccdc_geom_bond_type
C4    O4    A    
C146  H50   S    
C133  C137  A    
C55   C59   A    
C154  C161  A    
C129  H39   S    
C47   O23   A    
C187  O53   D    
C186  O51   D    
C96   O16   A    
C111  H31   S    
C18   H78   S    
C96   C102  S    
C40   H8    S    
C26   C50   A    
C21   C33   A    
C9    C13   A    
C123  C183  S    
C157  C169  S    
C54   C74   A    
C11   C15   A    
C135  C142  A    
C152  C156  A    
C82   O36   A    
C38   H6    S    
C70   C74   A    
C149  H53   S    
C85   C121  S    
C151  C155  A    
C40   C44   A    
C175  H63   S    
C136  H44   S    
C13   C91   S    
C36   H84   S    
O16   Zn12  S    
C41   C49   A    
C66   H10   S    
C155  C162  A    
C25   C29   A    
C27   C31   A    
C28   C32   A    
C85   H45   S    
C141  C144  A    
O29   Zn5   S    
C6    C174  S    
O2    Zn1   S    
C85   C169  S    
C153  C161  A    
C11   H75   S    
C19   C23   A    
C79   O37   A    
C79   C157  S    
C136  C141  A    
C84   C168  S    
C31   C63   A    
C82   C160  S    
C10   C30   A    
O43   Zn7   S    
C178  H66   S    
C156  C166  A    
C16   C20   A    
C87   C171  S    
C160  C172  S    
C111  C113  A    
C182  H70   S    
C178  C182  S    
C88   H48   S    
O14   Zn10  S    
C142  C144  A    
C110  C116  A    
C174  H62   S    
C77   O29   A    
C170  C174  S    
C183  H71   S    
C16   C94   S    
O19   Zn4   S    
C133  H41   S    
C175  C179  S    
C57   C61   A    
C3    C71   S    
C59   C63   A    
O28   Zn4   S    
C7    C183  S    
O9    Zn10  S    
C60   C64   A    
C158  C178  S    
C20   H80   S    
C104  C110  A    
C66   C70   A    
C123  C159  S    
C155  C165  A    
C49   C53   A    
C124  C160  S    
C51   C55   A    
C92   O10   A    
C127  C131  A    
C93   O11   A    
C141  C147  A    
C94   O12   A    
O52   H86   S    
C119  C126  A    
C116  C120  A    
O1    Zn1   S    
C58   H18   S    
C45   O21   A    
C103  C107  A    
O45   Zn9   S    
C89   O45   A    
C62   H22   S    
C104  C107  A    
C180  C184  S    
O6    Zn10  S    
C140  C143  A    
C88   C124  S    
C112  C114  A    
C176  H64   S    
C99   H27   S    
C24   C36   A    
C97   H25   S    
C6    C182  S    
C154  C164  A    
C110  H30   S    
C148  C150  A    
C124  C184  S    
C122  H2    S    
C1    O1    A    
C3    O3    A    
C86   C170  S    
C77   C131  S    
C78   C132  S    
C160  C180  S    
C149  C153  A    
C139  C143  A    
C60   H20   S    
C74   H14   S    
C83   O42   A    
C95   O13   A    
C165  H59   S    
C116  H36   S    
C47   O27   A    
O10   Zn9   S    
C48   O28   A    
C5    C85   S    
C44   C52   A    
C78   O32   A    
O18   Zn3   S    
C166  C168  A    
C185  O50   S    
O4    Zn2   S    
C114  H34   S    
C81   O35   A    
O25   Zn3   S    
C27   C51   A    
C188  O56   S    
C22   C34   A    
C29   C61   A    
C12   C16   A    
C32   C64   A    
C10   C14   A    
C134  C139  A    
C124  H4    S    
C158  C170  S    
C9    H73   S    
C39   C43   A    
C83   C167  S    
C172  C188  S    
C8    C88   S    
C80   C158  S    
C145  C151  A    
C90   O48   A    
C42   C50   A    
C113  C117  A    
C26   C30   A    
C115  C119  A    
O32   Zn8   S    
C128  C131  A    
C81   O39   A    
C82   O40   A    
C99   C106  A    
C21   C25   A    
C18   C22   A    
C5    C173  S    
O11   Zn12  S    
C24   C28   A    
C80   O38   A    
C8    C176  S    
C75   H15   S    
C6    C86   S    
C13   C17   A    
C35   H83   S    
C130  H40   S    
C87   C123  S    
C180  H68   S    
C106  C108  A    
C177  C181  S    
C119  C129  A    
C163  H57   S    
O23   Zn2   S    
O39   Zn8   S    
C112  H32   S    
C37   C41   A    
C171  C187  S    
C176  C180  S    
C43   C67   A    
C57   H17   S    
O30   Zn6   S    
C169  C173  S    
C46   O26   A    
C117  C125  A    
C84   O43   A    
C95   C101  S    
O12   Zn11  S    
C61   H21   S    
C58   C62   A    
C145  H49   S    
C144  C161  A    
C166  H60   S    
O56   H88   S    
C164  H58   S    
C134  C137  A    
C1    O17   A    
C80   O34   A    
C3    O19   A    
C50   C54   A    
C159  C171  S    
C56   C76   A    
C147  C149  A    
C93   O7    A    
C94   O8    A    
C120  C126  A    
O48   Zn12  S    
C169  C185  S    
C98   C103  A    
C170  C186  S    
O35   Zn7   S    
C91   O9    A    
O7    Zn11  S    
C7    C87   S    
C86   C122  S    
C69   C73   A    
C118  C125  A    
C17   C21   A    
C174  C178  S    
C129  C132  A    
C105  C111  A    
C63   H23   S    
O24   Zn2   S    
C5    C181  S    
C187  O54   S    
C65   H9    S    
C186  O52   S    
C2    O2    A    
C96   O15   A    
O37   Zn6   S    
C86   H46   S    
O20   Zn4   S    
C140  C146  A    
C53   C57   A    
O46   Zn10  S    
O44   Zn8   S    
C5    C45   S    
O22   Zn1   S    
C1    C69   S    
C56   C60   A    
C33   H81   S    
C7    C47   S    
C130  C132  A    
O50   H85   S    
C8    C48   S    
C48   O24   A    
C64   H24   S    
O54   H87   S    
C177  H65   S    
C68   H12   S    
C117  C127  A    
C181  H69   S    
C153  C163  A    
C89   C137  S    
C30   C62   A    
O13   Zn9   S    
C4    C72   S    
O15   Zn11  S    
C121  C181  S    
C173  H61   S    
C164  C167  A    
C159  C179  S    
C15   C93   S    
C38   C42   A    
O42   Zn6   S    
C98   C101  A    
C151  H55   S    
C103  C109  A    
C43   C51   A    
C65   C69   A    
C67   C71   A    
C17   H77   S    
C25   C49   A    
C97   C104  A    
C135  H43   S    
C19   H79   S    
C59   H19   S    
C99   C102  A    
C83   O41   A    
C133  C140  A    
O21   Zn1   S    
C22   C26   A    
O8    Zn12  S    
C2    C70   S    
C77   O30   A    
C147  H51   S    
C135  C138  A    
C37   H5    S    
C88   C172  S    
O17   Zn3   S    
O5    Zn9   S    
C81   C159  S    
C185  O49   D    
C14   C18   A    
C35   C39   A    
C72   C76   A    
C106  C112  A    
C188  O55   D    
O27   Zn4   S    
C98   H26   S    
C100  C105  A    
C4    O20   A    
C120  C130  A    
C134  H42   S    
O34   Zn6   S    
C109  H29   S    
C39   H7    S    
C46   O22   A    
C36   C40   A    
C15   C19   A    
C20   C24   A    
C150  H54   S    
C73   H13   S    
C10   H74   S    
C23   C27   A    
C108  C125  A    
O41   Zn5   S    
C89   O46   A    
C79   O33   A    
C143  C162  A    
C68   C72   A    
C2    O18   A    
C8    C184  S    
C184  H72   S    
C156  C162  A    
C121  C157  S    
C12   C32   A    
C115  H35   S    
C118  C128  A    
C67   H11   S    
C113  H33   S    
C179  C183  S    
C122  C158  S    
C105  C108  A    
C142  C148  A    
C91   O5    A    
C136  C138  A    
C76   H16   S    
C128  H38   S    
C109  C115  A    
C41   C65   A    
C171  C175  S    
C100  H28   S    
C7    C175  S    
C148  H52   S    
C121  H1    S    
C90   C138  S    
C163  C167  A    
C152  H56   S    
C173  C177  S    
C95   O14   A    
C100  C102  A    
C157  C177  S    
O36   Zn8   S    
C14   C92   S    
C114  C118  A    
O40   Zn7   S    
C146  C152  A    
C78   O31   A    
C165  C168  A    
O33   Zn5   S    
C44   C68   A    
C92   O6    A    
C84   O44   A    
C33   C37   A    
O26   Zn3   S    
C54   C58   A    
C139  C145  A    
C6    C46   S    
C34   C38   A    
C45   O25   A    
C34   H82   S    
C53   C73   A    
C107  C126  A    
C9    C29   A    
C23   C35   A    
C55   C75   A    
C71   C75   A    
C28   C52   A    
C87   H47   S    
O3    Zn2   S    
C123  H3    S    
O38   Zn5   S    
C90   O47   A    
C127  H37   S    
C11   C31   A    
C172  C176  S    
C122  C182  S    
O31   Zn7   S    
C150  C154  A    
O47   Zn11  S    
C42   C66   A    
C12   H76   S    
C179  H67   S    
C97   C101  A    
C52   C56   A    
