data_mof_unit_pretest_597.cif
_audit_creation_date              2012-12-10T18:33:37-0500
_audit_creation_method            fapswitch 2.2
_symmetry_space_group_name_H-M    P1
_symmetry_Int_Tables_number       1
_space_group_crystal_system       triclinic
_cell_length_a                    10.519467
_cell_length_b                    15.010785
_cell_length_c                    15.501156
_cell_angle_alpha                 81.484263
_cell_angle_beta                  89.69205
_cell_angle_gamma                 104.857623
_cell_volume                      2337.39014901

loop_
_atom_site_label
_atom_site_type_symbol
_atom_type_description
_atom_site_fract_x
_atom_site_fract_y
_atom_site_fract_z
_atom_type_partial_charge
C1    C     C_R   0.488407 0.441376 0.661890 0.891658
C2    C     C_R   0.514971 0.558952 0.337889 0.881361
C3    C     C_R   0.490366 0.465247 0.812986 -0.224600
C4    C     C_R   0.555674 0.541234 0.187612 -0.199920
C5    C     C_R   0.539092 0.455887 0.896376 0.076052
C6    C     C_R   0.557767 0.566441 0.097162 0.078088
C7    C     C_R   0.580817 0.374908 0.926330 0.118385
C8    C     C_R   0.531721 0.652653 0.063693 0.116604
C9    C     C_R   0.546092 0.524816 0.950698 0.076032
C10   C     C_R   0.574569 0.504743 0.039551 0.074845
C11   C     C_R   0.616661 0.423159 0.067686 -0.216620
C12   C     C_R   0.529305 0.614122 0.918372 -0.218646
C13   C     C_R   0.621009 0.360039 0.011453 -0.216016
C14   C     C_R   0.524232 0.677408 0.974107 -0.211286
C15   C     C_R   0.703537 0.844231 0.631133 -0.307843
C16   C     C_R   0.295318 0.155589 0.369428 -0.303997
C17   C     C_R   0.667533 0.754325 0.611373 0.018280
C18   C     C_R   0.329865 0.245039 0.390443 0.022207
C19   C     C_R   0.512154 0.793358 0.512108 -0.028188
C20   C     C_R   0.491680 0.207598 0.484828 -0.031781
C21   C     C_R   0.544228 0.886034 0.528939 0.000696
C22   C     C_R   0.459911 0.115057 0.467658 0.000494
C23   C     C_R   0.742479 0.501248 0.499677 0.911507
C24   C     C_R   0.257527 0.498702 0.500443 0.915536
C25   C     C_R   0.642741 0.910628 0.589690 0.162714
C26   C     C_R   0.359516 0.090029 0.408283 0.164341
C27   C     C_R   0.482950 0.954376 0.487743 0.071138
C28   C     C_R   0.522509 0.047046 0.507868 0.066768
C29   C     C_R   0.622289 0.068386 0.568058 -0.188015
C30   C     C_R   0.383250 0.933063 0.427488 -0.185055
C31   C     C_R   0.680482 0.001198 0.608301 -0.179786
C32   C     C_R   0.323172 0.999821 0.388616 -0.182637
C33   C     C_3   0.927946 0.427374 0.556685 -0.269740
C34   C     C_3   0.072084 0.572505 0.443634 -0.268982
C35   C     C_3   0.041961 0.505700 0.580294 0.054977
C36   C     C_3   0.958103 0.494170 0.420024 0.059811
C37   C     C_3   0.121945 0.497212 0.500916 0.004260
C38   C     C_3   0.878066 0.502662 0.499386 0.005114
C39   C     C_3   0.009903 0.418803 0.476265 -0.224341
C40   C     C_3   0.990127 0.581072 0.524061 -0.222983
C41   C     C_R   0.505920 0.407154 0.753687 -0.155861
C42   C     C_R   0.523436 0.596693 0.244516 -0.158418
C43   C     C_R   0.585943 0.311102 0.869866 -0.172642
C44   C     C_R   0.507052 0.711490 0.120228 -0.170450
C45   C     C_R   0.555800 0.328825 0.781970 -0.009884
C46   C     C_R   0.497684 0.683137 0.210825 -0.012020
H1    H     H_    0.567038 0.233888 0.527658 0.117550
H2    H     H_    0.439877 0.767687 0.466956 0.117880
H3    H     H_    0.280075 0.296264 0.361818 0.128784
H4    H     H_    0.714634 0.702372 0.642042 0.128946
H5    H     H_    0.778791 0.861896 0.677764 0.150275
H6    H     H_    0.218354 0.137552 0.324005 0.150288
H7    H     H_    0.658299 0.136573 0.586097 0.159911
H8    H     H_    0.347993 0.865027 0.408938 0.151592
H9    H     H_    0.865919 0.368746 0.603223 0.136068
H10   H     H_    0.134377 0.631093 0.397149 0.135348
H11   H     H_    0.020910 0.352919 0.456530 0.152735
H12   H     H_    0.979102 0.646946 0.543808 0.153481
H13   H     H_    0.655416 0.299013 0.034948 0.155308
H14   H     H_    0.508342 0.744404 0.947257 0.155851
H15   H     H_    0.571235 0.475159 0.215764 0.190530
H16   H     H_    0.442791 0.519892 0.791569 0.192358
H17   H     H_    0.622550 0.250904 0.892922 0.178755
H18   H     H_    0.485622 0.776714 0.093288 0.179450
H19   H     H_    0.651609 0.407631 0.131967 0.166659
H20   H     H_    0.522521 0.637762 0.849752 0.153836
H21   H     H_    0.756159 0.020502 0.654341 0.158301
H22   H     H_    0.246694 0.980350 0.343144 0.155052
N1    N     N_R   0.574200 0.731700 0.552740 -0.101699
N2    N     N_R   0.425800 0.268300 0.447260 -0.102397
O1    O     O_R   0.462600 0.383110 0.605620 -0.629032
O2    O     O_R   0.537400 0.616890 0.394380 -0.628242
O3    O     O_R   0.510210 0.531900 0.639510 -0.596740
O4    O     O_R   0.489790 0.468100 0.360490 -0.598140
O5    O     O_R   0.662240 0.425610 0.483080 -0.606176
O6    O     O_R   0.337760 0.574390 0.516920 -0.602607
O7    O     O_R   0.709860 0.574400 0.516970 -0.636370
O8    O     O_R   0.290140 0.425600 0.483030 -0.636957
Zn1   Zn    Zn3+2 0.468210 0.400660 0.477370 0.963768
Zn2   Zn    Zn3+2 0.531790 0.599340 0.522630 0.965763
C47   C     C_2   0.085423 0.511161 0.671685 0.373630
H23   H     H_    0.017267 0.518628 0.721183 0.056282
O9    O     O_2   0.196176 0.506964 0.691119 -0.573000
C48   C     C_2   0.914856 0.488609 0.328621 0.367794
H24   H     H_    0.983079 0.481081 0.279202 0.054110
O10   O     O_2   0.804153 0.492755 0.309096 -0.580628
C49   C     C_2   0.449095 0.740631 0.266865 0.396031
H25   H     H_    0.397708 0.709214 0.329024 0.050128
O11   O     O_2   0.462898 0.823950 0.242954 -0.575782
C50   C     C_2   0.588664 0.269530 0.721388 0.379400
H26   H     H_    0.617300 0.297792 0.653839 0.059803
O12   O     O_2   0.588323 0.188574 0.747332 -0.579052

loop_
_geom_bond_atom_site_label_1
_geom_bond_atom_site_label_2
_ccdc_geom_bond_type
C18   N2    A    
C38   C40   S    
C49   H25   S    
C17   N1    A    
C34   C37   S    
O1    Zn1   S    
C47   H23   S    
C35   C47   S    
C43   H17   S    
C44   H18   S    
C34   H10   S    
C30   H8    S    
C1    O1    A    
C4    C42   A    
C34   C40   S    
C28   C29   A    
C35   C37   S    
C48   O10   D    
O7    Zn2   S    
C39   H11   S    
C42   C46   A    
C36   C48   S    
C7    C43   A    
C9    C10   A    
C2    O4    A    
C32   H22   S    
C21   C27   A    
C22   C28   A    
C27   C30   A    
C20   N2    A    
C2    O2    A    
C47   O9    D    
C44   C46   A    
C16   C26   A    
C40   H12   S    
O6    Zn2   S    
C48   H24   S    
C4    C6    A    
C23   O5    A    
C5    C7    A    
O8    Zn1   S    
C24   O6    A    
C6    C8    A    
C12   H20   S    
C4    H15   S    
C31   H21   S    
C5    C9    A    
C50   O12   D    
C29   C31   A    
C24   C37   S    
C33   H9    S    
C16   C18   A    
C33   C39   S    
C23   O7    A    
C45   C50   S    
C43   C45   A    
C1    C41   S    
C12   C14   A    
C15   H5    S    
O4    Zn1   S    
C49   O11   D    
C19   N1    A    
C46   C49   S    
C3    H16   S    
C24   O8    A    
C16   H6    S    
C15   C17   A    
C21   C25   A    
C3    C41   A    
C8    C14   A    
C19   C21   A    
N2    Zn1   S    
C19   H2    S    
C25   C31   A    
C36   C39   S    
C8    C44   A    
C20   C22   A    
C3    C5    A    
C17   H4    S    
C6    C10   A    
C13   H13   S    
C23   C38   S    
C14   H14   S    
C33   C38   S    
C1    O3    A    
C36   C38   S    
C35   C40   S    
C37   C39   S    
C30   C32   A    
C11   C13   A    
C50   H26   S    
C29   H7    S    
C2    C42   S    
C33   C35   S    
O3    Zn2   S    
C34   C36   S    
C9    C12   A    
C20   H1    S    
C15   C25   A    
C10   C11   A    
C7    C13   A    
O2    Zn2   S    
C22   C26   A    
C27   C28   A    
C41   C45   A    
N1    Zn2   S    
O5    Zn1   S    
C26   C32   A    
C11   H19   S    
C18   H3    S    
