data_mof_unit_pretest_757.cif
_audit_creation_date              2012-12-10T18:33:42-0500
_audit_creation_method            fapswitch 2.2
_symmetry_space_group_name_H-M    P1
_symmetry_Int_Tables_number       1
_space_group_crystal_system       triclinic
_cell_length_a                    10.57837
_cell_length_b                    15.040801
_cell_length_c                    15.574953
_cell_angle_alpha                 81.207697
_cell_angle_beta                  91.64382
_cell_angle_gamma                 104.218481
_cell_volume                      2373.84364031

loop_
_atom_site_label
_atom_site_type_symbol
_atom_type_description
_atom_site_fract_x
_atom_site_fract_y
_atom_site_fract_z
_atom_type_partial_charge
C1    C     C_R   0.480700 0.441432 0.661710 0.855311
C2    C     C_R   0.521627 0.558415 0.338119 0.835199
C3    C     C_R   0.484000 0.468448 0.811906 -0.214923
C4    C     C_R   0.525180 0.528236 0.188629 -0.230245
C5    C     C_R   0.509533 0.445358 0.899501 0.079549
C6    C     C_R   0.553040 0.554153 0.100317 0.058015
C7    C     C_R   0.503876 0.351029 0.932494 0.110931
C8    C     C_R   0.589631 0.650120 0.066581 0.108778
C9    C     C_R   0.539058 0.514207 0.954586 0.030659
C10   C     C_R   0.540312 0.486155 0.044902 0.021872
C11   C     C_R   0.532493 0.391527 0.077117 -0.242320
C12   C     C_R   0.572778 0.610295 0.921796 -0.238884
C13   C     C_R   0.515659 0.324937 0.022092 0.145069
C14   C     C_R   0.601292 0.677375 0.976461 0.140341
C15   C     C_R   0.729325 0.848163 0.618458 0.071945
C16   C     C_R   0.241967 0.142341 0.428807 0.080724
C17   C     C_R   0.677828 0.755483 0.607246 0.206268
C18   C     C_R   0.307132 0.236542 0.412159 0.235144
C19   C     C_R   0.505195 0.795479 0.521274 0.472380
C20   C     C_R   0.499113 0.207873 0.478374 0.479168
C21   C     C_R   0.535673 0.884599 0.548741 -0.144771
C22   C     C_R   0.440053 0.110970 0.497621 -0.141308
C23   C     C_R   0.741706 0.498888 0.506496 0.918148
C24   C     C_R   0.260493 0.503980 0.487836 0.939763
C25   C     C_R   0.655916 0.912839 0.590850 0.013506
C26   C     C_R   0.308433 0.079073 0.473174 0.011274
C27   C     C_R   0.455588 0.948659 0.531043 0.108286
C28   C     C_R   0.509125 0.044271 0.534889 0.098124
C29   C     C_R   0.626867 0.069014 0.579022 -0.189314
C30   C     C_R   0.321988 0.919562 0.515247 -0.195691
C31   C     C_R   0.697830 0.004397 0.607559 -0.123273
C32   C     C_R   0.248965 0.983723 0.488486 -0.147934
C33   C     C_3   0.935534 0.417461 0.519114 0.494752
C34   C     C_3   0.067943 0.591198 0.469107 0.430909
C35   C     C_3   0.050505 0.469421 0.569674 -0.482558
C36   C     C_3   0.951908 0.539340 0.419235 -0.536041
C37   C     C_3   0.124910 0.505185 0.482352 -0.247747
C38   C     C_3   0.878727 0.502780 0.506309 -0.270190
C39   C     C_3   0.009539 0.453054 0.432515 0.510845
C40   C     C_3   0.994669 0.555916 0.555141 0.452350
C41   C     C_R   0.477013 0.405640 0.754234 -0.051455
C42   C     C_R   0.545536 0.593177 0.245498 -0.050816
C43   C     C_R   0.487783 0.285787 0.874496 -0.155313
C44   C     C_R   0.612674 0.715846 0.124222 -0.153130
C45   C     C_R   0.478130 0.313615 0.785491 -0.217585
C46   C     C_R   0.593637 0.687178 0.213314 -0.234603
H1    H     H_    0.092041 0.440627 0.630849 0.166758
H2    H     H_    0.906080 0.570633 0.361295 0.177866
H3    H     H_    0.662370 0.137054 0.596504 0.201472
H4    H     H_    0.272340 0.846939 0.526006 0.193109
H5    H     H_    0.483290 0.456770 0.213800 0.184794
H6    H     H_    0.469709 0.536076 0.786984 0.163381
H7    H     H_    0.616167 0.738489 0.256319 0.143310
H8    H     H_    0.472676 0.263636 0.741437 0.162641
H9    H     H_    0.486270 0.213859 0.896616 0.185481
H10   H     H_    0.645580 0.789370 0.101477 0.178517
H11   H     H_    0.545751 0.367691 0.144918 0.167455
H12   H     H_    0.583909 0.635867 0.853383 0.192229
H13   H     H_    0.786000 0.027881 0.642730 0.184063
H14   H     H_    0.146670 0.957140 0.476717 0.177665
N1    N     N_R   0.574200 0.731700 0.552740 -0.185738
N2    N     N_R   0.425800 0.268300 0.447260 -0.188399
O1    O     O_R   0.462600 0.383110 0.605620 -0.626142
O2    O     O_R   0.537400 0.616890 0.394380 -0.638793
O3    O     O_R   0.510210 0.531900 0.639510 -0.601209
O4    O     O_R   0.489790 0.468100 0.360490 -0.609536
O5    O     O_R   0.662240 0.425610 0.483080 -0.586028
O6    O     O_R   0.337760 0.574390 0.516920 -0.577003
O7    O     O_R   0.709860 0.574400 0.516970 -0.583573
O8    O     O_R   0.290140 0.425600 0.483030 -0.578373
Zn1   Zn    Zn3+2 0.468210 0.400660 0.477370 0.987264
Zn2   Zn    Zn3+2 0.531790 0.599340 0.522630 0.984355
O9    O     O_3   0.632820 0.240141 0.477401 -0.623813
C47   C     C_3   0.679874 0.255050 0.390716 0.163847
H15   H     H_    0.779798 0.300082 0.389568 0.234798
H16   H     H_    0.622392 0.293271 0.344167 0.115001
C48   C     C_3   0.687223 0.163805 0.360461 -0.418464
H17   H     H_    0.738316 0.124269 0.409934 0.272268
H18   H     H_    0.587215 0.121150 0.352095 0.217578
C49   C     C_3   0.759799 0.181121 0.274094 -0.838938
H19   H     H_    0.712017 0.221936 0.223766 0.265521
H20   H     H_    0.758696 0.113741 0.252839 0.286523
H21   H     H_    0.862719 0.219335 0.281095 0.298667
O10   O     O_3   0.410754 0.774164 0.459569 -0.604244
C50   C     C_3   0.468943 0.798177 0.375734 0.163758
H22   H     H_    0.413698 0.747206 0.335211 0.182775
H23   H     H_    0.572888 0.794127 0.375675 0.113826
C51   C     C_3   0.460420 0.895424 0.333269 -0.436175
H24   H     H_    0.359392 0.903082 0.338829 0.251841
H25   H     H_    0.527222 0.948256 0.366584 0.224825
C52   C     C_3   0.499935 0.913857 0.237533 -0.895277
H26   H     H_    0.602254 0.909265 0.230522 0.261045
H27   H     H_    0.492676 0.984675 0.208952 0.302527
H28   H     H_    0.434409 0.862908 0.201340 0.267363
I1    I     I_    0.250417 0.321516 0.306546 -0.307805
I2    I     I_    0.750484 0.654909 0.691454 -0.270408
I3    I     I_    0.918750 0.889248 0.675637 -0.332865
I4    I     I_    0.046053 0.097592 0.384285 -0.373611
O11   O     O_3   0.866021 0.325314 0.547635 -0.585996
C53   C     C_3   0.813438 0.316908 0.632222 0.129055
H29   H     H_    0.706781 0.286816 0.629985 0.181097
H30   H     H_    0.824707 0.383776 0.657858 0.115968
C54   C     C_3   0.875520 0.252615 0.696112 -0.371502
H31   H     H_    0.870579 0.187323 0.669825 0.241876
H32   H     H_    0.979906 0.286627 0.704631 0.225344
C55   C     C_3   0.806433 0.229552 0.784342 -0.906251
H33   H     H_    0.810932 0.294002 0.812180 0.270753
H34   H     H_    0.854749 0.183973 0.829646 0.287191
H35   H     H_    0.702732 0.192617 0.777664 0.261248
O12   O     O_3   0.141847 0.682637 0.442007 -0.615231
C56   C     C_3   0.058603 0.741791 0.413323 0.126543
H36   H     H_    0.093853 0.806908 0.440654 0.148711
H37   H     H_    0.955513 0.714160 0.436577 0.157782
C57   C     C_3   0.064390 0.765363 0.314095 -0.374608
H38   H     H_    0.164768 0.804170 0.293141 0.235774
H39   H     H_    0.040839 0.700896 0.284294 0.215753
C58   C     C_3   0.969011 0.823888 0.280809 -0.909046
H40   H     H_    0.867464 0.785187 0.299220 0.254504
H41   H     H_    0.975966 0.840355 0.208880 0.279212
H42   H     H_    0.992527 0.889868 0.308360 0.285024
O13   O     O_3   0.015670 0.398952 0.366515 -0.605838
C59   C     C_3   0.021478 0.453508 0.282808 0.126669
H43   H     H_    0.078570 0.427587 0.238288 0.189408
H44   H     H_    0.075064 0.527377 0.282496 0.128936
C60   C     C_3   0.885442 0.444675 0.242646 -0.426826
H45   H     H_    0.852072 0.375619 0.221703 0.230093
H46   H     H_    0.812983 0.450204 0.290383 0.223582
C61   C     C_3   0.888327 0.518796 0.163562 -0.896862
H47   H     H_    0.910721 0.588767 0.183512 0.261588
H48   H     H_    0.791863 0.506308 0.131865 0.276459
H49   H     H_    0.962741 0.516230 0.115711 0.268833
O14   O     O_3   0.985563 0.610122 0.619657 -0.609631
C62   C     C_3   0.110633 0.654392 0.647788 0.134151
H50   H     H_    0.113787 0.729073 0.645705 0.179882
H51   H     H_    0.193193 0.651348 0.606469 0.175947
C63   C     C_3   0.132382 0.612945 0.741325 -0.356229
H52   H     H_    0.055119 0.621267 0.784146 0.260581
H53   H     H_    0.126229 0.537698 0.744858 0.215620
C64   C     C_3   0.265850 0.660382 0.773830 -0.919668
H54   H     H_    0.344543 0.653439 0.731461 0.263280
H55   H     H_    0.280468 0.627538 0.841021 0.272546
H56   H     H_    0.272474 0.735189 0.774166 0.283650
I5    I     I_    0.503843 0.185835 0.081128 -0.423721
I6    I     I_    0.655230 0.818235 0.915758 -0.342994

loop_
_geom_bond_atom_site_label_1
_geom_bond_atom_site_label_2
_ccdc_geom_bond_type
C25   C31   A    
C38   C40   S    
C26   C32   A    
C34   C37   S    
C64   H55   S    
O9    C47   S    
C23   O7    A    
C56   H36   S    
C40   O14   S    
O2    Zn2   S    
C35   H1    S    
C61   H47   S    
C57   H38   S    
C24   O8    A    
C29   H3    S    
C50   H22   S    
C33   C39   S    
C47   H16   S    
C34   C40   S    
C28   C29   A    
C35   C37   S    
C19   N1    A    
C58   H41   S    
C64   H56   S    
C48   C49   S    
C55   H33   S    
C31   H13   S    
C42   C46   A    
C23   O5    A    
O12   C56   S    
C17   N1    A    
C54   H32   S    
O4    Zn1   S    
C44   C46   A    
O14   C62   S    
C47   C48   S    
C20   O9    S    
C62   C63   S    
C1    O3    A    
C36   H2    S    
O8    Zn1   S    
C7    C43   A    
C56   C57   S    
C9    C10   A    
O5    Zn1   S    
C12   H12   S    
C55   H34   S    
C50   H23   S    
C21   C27   A    
C22   C28   A    
C27   C30   A    
C18   I1    S    
C15   I3    S    
C49   H21   S    
C1    O1    A    
C2    O2    A    
C48   H18   S    
C16   C26   A    
C30   H4    S    
C14   I6    S    
C47   H15   S    
C4    H5    S    
O10   C50   S    
C4    C6    A    
C58   H42   S    
C52   H26   S    
C5    C7    A    
C18   N2    A    
C6    C8    A    
C2    O4    A    
C48   H17   S    
C53   C54   S    
C33   O11   S    
C63   C64   S    
O7    Zn2   S    
C5    C9    A    
C52   H27   S    
C44   H10   S    
O11   C53   S    
C51   C52   S    
C20   C22   A    
O6    Zn2   S    
C53   H30   S    
C24   C37   S    
C56   H37   S    
C17   I2    S    
C43   C45   A    
O13   C59   S    
N1    Zn2   S    
C43   H9    S    
O1    Zn1   S    
C45   H8    S    
C60   H45   S    
C34   O12   S    
C32   H14   S    
C59   H44   S    
C19   O10   S    
O3    Zn2   S    
C61   H49   S    
C54   H31   S    
C63   H53   S    
C60   H46   S    
C50   C51   S    
C1    C41   S    
C15   C17   A    
C21   C25   A    
C3    C41   A    
C8    C14   A    
C19   C21   A    
C36   C39   S    
C8    C44   A    
C12   C14   A    
C49   H19   S    
C3    C5    A    
C61   H48   S    
C6    C10   A    
C57   H39   S    
C64   H54   S    
C23   C38   S    
C33   C38   S    
C39   O13   S    
C16   C18   A    
C59   C60   S    
C36   C38   S    
C51   H25   S    
C37   C39   S    
C58   H40   S    
C3    H6    S    
C52   H28   S    
C30   C32   A    
C11   C13   A    
C16   I4    S    
C62   H50   S    
C4    C42   A    
C2    C42   S    
C60   C61   S    
C46   H7    S    
C53   H29   S    
C33   C35   S    
C49   H20   S    
N2    Zn1   S    
C35   C40   S    
C54   C55   S    
C34   C36   S    
C13   I5    S    
C20   N2    A    
C9    C12   A    
C57   C58   S    
C15   C25   A    
C10   C11   A    
C24   O6    A    
C7    C13   A    
C51   H24   S    
C29   C31   A    
C22   C26   A    
C27   C28   A    
C62   H51   S    
C41   C45   A    
C63   H52   S    
C59   H43   S    
C11   H11   S    
C55   H35   S    
