data_mof_unit_pretest_658.cif
_audit_creation_date              2013-03-05T15:49:17-0500
_audit_creation_method            fapswitch 2.2
_symmetry_space_group_name_H-M    P1
_symmetry_Int_Tables_number       1
_space_group_crystal_system       triclinic
_cell_length_a                    20.713702
_cell_length_b                    22.810629
_cell_length_c                    6.94913
_cell_angle_alpha                 90.000848
_cell_angle_beta                  86.677514
_cell_angle_gamma                 90.000446
_cell_volume                      3277.89337458

loop_
_atom_site_label
_atom_site_type_symbol
_atom_site_description
_atom_site_fract_x
_atom_site_fract_y
_atom_site_fract_z
_atom_type_partial_charge
O1    O     O_R   0.387100 0.552640 0.378490 -0.589435
O2    O     O_R   0.612900 0.052640 0.621510 -0.589915
O3    O     O_R   0.249610 0.559600 0.072250 -0.595114
O4    O     O_R   0.750390 0.059600 0.927750 -0.594813
O5    O     O_R   0.249120 0.447360 0.902040 -0.607848
O6    O     O_R   0.750880 0.947360 0.097960 -0.607824
C1    C     C_R   0.225205 0.571345 0.244084 1.063717
C2    C     C_R   0.774793 0.071345 0.755922 1.063268
O7    O     O_R   0.386610 0.559560 0.048860 -0.570154
O8    O     O_R   0.613390 0.059560 0.951140 -0.569578
O9    O     O_R   0.387100 0.447320 0.878470 -0.595380
O10   O     O_R   0.612900 0.947320 0.121530 -0.595369
C3    C     C_R   0.406537 0.575949 0.214451 1.027394
C4    C     C_R   0.593485 0.075966 0.785539 1.027558
O11   O     O_R   0.249120 0.552680 0.402050 -0.583761
O12   O     O_R   0.750880 0.052680 0.597950 -0.584272
O13   O     O_3   0.318110 0.463180 0.223790 -0.291761
O14   O     O_3   0.681890 0.963180 0.776210 -0.291704
V1    V     V_3+5 0.318110 0.506830 0.948930 1.228129
V2    V     V_3+5 0.681890 0.006830 0.051070 1.228266
O15   O     O_R   0.386610 0.440400 0.548840 -0.596737
O16   O     O_R   0.613390 0.940400 0.451160 -0.596699
C5    C     C_R   0.407329 0.425237 0.713904 0.930290
C6    C     C_R   0.592670 0.925236 0.286097 0.930336
O17   O     O_R   0.249610 0.440440 0.572240 -0.611821
O18   O     O_R   0.750390 0.940440 0.427760 -0.611773
C7    C     C_R   0.227263 0.426566 0.744411 0.970584
C8    C     C_R   0.772737 0.926567 0.255589 0.970622
V3    V     V_3+5 0.318110 0.493170 0.448930 1.212529
V4    V     V_3+5 0.681890 0.993170 0.551070 1.212184
O19   O     O_3   0.318110 0.536820 0.723940 -0.249213
O20   O     O_3   0.681890 0.036820 0.276060 -0.249415
C9    C     C_R   0.172393 0.385179 0.758497 -0.209337
C10   C     C_R   0.827608 0.885181 0.241512 -0.209355
C11   C     C_R   0.166300 0.342831 0.615385 -0.224594
C12   C     C_R   0.833698 0.842838 0.384633 -0.224606
C13   C     C_R   0.111169 0.307437 0.611539 0.375305
C14   C     C_R   0.888834 0.807454 0.388524 0.375116
C15   C     C_R   0.060133 0.314179 0.755942 -0.162497
C16   C     C_R   0.939876 0.814192 0.244137 -0.162285
C17   C     C_R   0.066421 0.357425 0.901575 0.404290
C18   C     C_R   0.933599 0.857446 0.098527 0.404378
C19   C     C_R   0.123109 0.391271 0.903140 -0.255053
C20   C     C_R   0.876906 0.891284 0.096916 -0.254992
C21   C     C_R   0.898977 0.182489 0.901261 0.319989
C22   C     C_R   0.100930 0.682405 0.098728 0.320179
C23   C     C_R   0.843438 0.147489 0.901165 -0.179674
C24   C     C_R   0.156473 0.647409 0.098744 -0.179980
C25   C     C_R   0.874768 0.111958 0.581355 -0.137724
C26   C     C_R   0.125310 0.612037 0.418865 -0.137405
C27   C     C_R   0.930805 0.146313 0.580316 -0.033344
C28   C     C_R   0.069267 0.646384 0.419978 -0.033340
C29   C     C_R   0.943323 0.182070 0.738413 -0.020043
C30   C     C_R   0.056670 0.682068 0.261781 -0.020241
C31   C     C_2   0.001133 0.276404 0.758483 0.041683
C32   C     C_2   0.998869 0.776403 0.241569 0.041472
C33   C     C_2   0.003088 0.218044 0.729726 -0.063715
C34   C     C_2   0.996912 0.718053 0.270569 -0.063441
C35   C     C_R   0.830974 0.111665 0.743108 -0.142493
C36   C     C_R   0.169029 0.611671 0.256933 -0.142930
C37   C     C_R   0.574487 0.363857 0.648281 -0.079400
C38   C     C_R   0.425565 0.863789 0.352667 -0.079452
C39   C     C_R   0.460866 0.383042 0.710418 -0.114968
C40   C     C_R   0.539138 0.883033 0.289628 -0.115023
C41   C     C_R   0.478053 0.097608 0.825771 -0.284584
C42   C     C_R   0.521950 0.597626 0.173374 -0.284420
C43   C     C_R   0.423704 0.133945 0.831538 0.424989
C44   C     C_R   0.576288 0.633982 0.167185 0.424962
C45   C     C_R   0.431734 0.194213 0.799339 -0.257869
C46   C     C_R   0.568270 0.694237 0.199715 -0.257831
C47   C     C_R   0.493502 0.219606 0.762381 0.033150
C48   C     C_R   0.506524 0.719595 0.237481 0.033199
C49   C     C_R   0.549155 0.181732 0.756135 -0.063270
C50   C     C_R   0.450890 0.681693 0.244268 -0.063455
C51   C     C_R   0.501457 0.281686 0.731202 0.125202
C52   C     C_R   0.498569 0.781666 0.268898 0.125138
C53   C     C_R   0.564291 0.303938 0.684075 0.072395
C54   C     C_R   0.435759 0.803882 0.316668 0.072497
C55   C     C_R   0.617363 0.266829 0.676696 -0.250096
C56   C     C_R   0.382711 0.766741 0.324599 -0.250148
C57   C     C_R   0.611034 0.207398 0.717626 0.333155
C58   C     C_R   0.389040 0.707317 0.283633 0.333361
C59   C     C_R   0.449726 0.322993 0.745642 -0.212561
C60   C     C_R   0.550273 0.822997 0.254122 -0.212558
C61   C     C_R   0.523130 0.402952 0.660158 -0.147669
C62   C     C_R   0.476900 0.902906 0.340454 -0.147602
C63   C     C_R   0.540341 0.119883 0.787720 -0.209803
C64   C     C_R   0.459687 0.619865 0.212235 -0.210067
H1    H     H_    0.203987 0.338498 0.501419 0.176649
H2    H     H_    0.796006 0.838505 0.498587 0.176669
H3    H     H_    0.964549 0.145097 0.455398 0.186163
H4    H     H_    0.035578 0.645216 0.545027 0.186384
H5    H     H_    0.531976 0.448993 0.630495 0.131026
H6    H     H_    0.468060 0.948935 0.370362 0.131020
H7    H     H_    0.665452 0.284722 0.646773 0.194050
H8    H     H_    0.334632 0.784587 0.355154 0.193808
H9    H     H_    0.622586 0.380617 0.611223 0.152315
H10   H     H_    0.377488 0.880521 0.390214 0.152305
H11   H     H_    0.400509 0.310365 0.783475 0.111904
H12   H     H_    0.599472 0.810394 0.215908 0.111932
H13   H     H_    0.471945 0.050954 0.850410 0.158765
H14   H     H_    0.528047 0.550987 0.148389 0.158770
H15   H     H_    0.388503 0.220330 0.802081 0.166565
H16   H     H_    0.611493 0.720372 0.196531 0.166553
N1    N     N_R   0.360032 0.109501 0.869703 0.248003
O21   O     O_R   0.352401 0.053484 0.898666 -0.359580
O22   O     O_R   0.309043 0.142962 0.876408 -0.340737
N2    N     N_R   0.639936 0.609575 0.128179 0.247984
O23   O     O_R   0.647557 0.553574 0.098854 -0.359633
O24   O     O_R   0.690913 0.643053 0.121075 -0.340711
N3    N     N_R   0.669463 0.175622 0.734139 0.199516
O25   O     O_R   0.711083 0.174312 0.586621 -0.393190
O26   O     O_R   0.689790 0.168293 0.906009 -0.417276
N4    N     N_R   0.330607 0.675478 0.268161 0.199510
O27   O     O_R   0.309570 0.668685 0.096866 -0.417706
O28   O     O_R   0.289591 0.673568 0.417153 -0.392422
H17   H     H_    0.810797 0.146976 0.028682 0.204708
H18   H     H_    0.189044 0.646830 0.971072 0.204671
H19   H     H_    0.866690 0.084374 0.458178 0.135313
H20   H     H_    0.133448 0.584513 0.542140 0.135388
H21   H     H_    0.048816 0.196154 0.695069 0.166753
H22   H     H_    0.951191 0.696174 0.305445 0.166770
N5    N     N_R   0.016035 0.368173 0.048716 0.264115
O29   O     O_R   0.957086 0.377599 0.001520 -0.340223
O30   O     O_R   0.031297 0.382082 0.221949 -0.346619
N6    N     N_R   0.984011 0.868226 0.951501 0.264037
O31   O     O_R   0.042928 0.877724 0.998867 -0.340373
O32   O     O_R   0.968783 0.882125 0.778230 -0.346498
N7    N     N_R   0.911482 0.214943 0.072146 0.231365
O33   O     O_R   0.863784 0.235897 0.181373 -0.327645
O34   O     O_R   0.969317 0.215592 0.134981 -0.347962
N8    N     N_R   0.088321 0.714762 0.927732 0.231262
O35   O     O_R   0.135958 0.735638 0.818080 -0.327976
O36   O     O_R   0.030432 0.715394 0.865275 -0.348221
H23   H     H_    0.127147 0.424832 0.012181 0.164928
H24   H     H_    0.872877 0.924850 0.987891 0.164909
H25   H     H_    0.954265 0.296403 0.789244 0.187501
H26   H     H_    0.045735 0.796376 0.210518 0.187479
N9    N     N_R   0.106415 0.267845 0.452434 0.231232
O37   O     O_R   0.053629 0.265693 0.360613 -0.303863
O38   O     O_R   0.157711 0.241110 0.379760 -0.356060
N10   N     N_R   0.893599 0.767894 0.547704 0.231209
O39   O     O_R   0.946379 0.765797 0.639568 -0.303770
O40   O     O_R   0.842313 0.741151 0.620414 -0.355996

loop_
_geom_bond_atom_site_label_1
_geom_bond_atom_site_label_2
_geom_bond_distance
_ccdc_geom_bond_type
C20   H24   1.083763 S    
C42   C44   1.396715 A    
C21   N7    1.435585 S    
N6    O31   1.300449 A    
O11   V3    2.011218 S    
O6    C8    1.298960 A    
O13   V3    1.707540 S    
C42   H14   1.084138 S    
N3    O25   1.300986 A    
C41   H13   1.084138 S    
O4    C2    1.297339 A    
V1    O19   1.706603 S    
C52   C60   1.426069 A    
C25   C27   1.400173 A    
N4    O27   1.300366 A    
N5    O29   1.300450 A    
C15   C17   1.424621 A    
C7    C9    1.476395 S    
C38   C62   1.386935 A    
O9    V1    2.010847 S    
C26   H20   1.083154 S    
C11   C13   1.400054 A    
C52   C54   1.417602 A    
C4    C63   1.487834 S    
O3    C1    1.297384 A    
C2    C35   1.481903 S    
C42   C64   1.397585 A    
C9    C11   1.397346 A    
C54   C56   1.386065 A    
C5    C39   1.467536 S    
N5    O30   1.301493 A    
O12   V4    2.011195 S    
C32   H26   1.082707 S    
N2    O23   1.301749 A    
C49   C57   1.420387 A    
C45   C47   1.414340 A    
O7    C3    1.299736 A    
C49   C63   1.437787 A    
C62   H6    1.083840 S    
C27   H3    1.082846 S    
C38   H10   1.084146 S    
C61   H5    1.083838 S    
O7    V1    2.014040 S    
C15   C31   1.494603 S    
C57   N3    1.421077 S    
O8    V2    2.014067 S    
N8    O35   1.301494 A    
C16   C32   1.494675 S    
C26   C28   1.400163 A    
C41   C63   1.397575 A    
O14   V4    1.707557 S    
V4    O20   2.154918 S    
C17   C19   1.405857 A    
O14   V2    2.153967 S    
C48   C52   1.440607 A    
C16   C18   1.424624 A    
C8    C10   1.476393 S    
C2    O12   1.301816 A    
O5    C7    1.298952 A    
C39   C61   1.392620 A    
C14   N10   1.435373 S    
O10   V2    2.010840 S    
C18   C20   1.405863 A    
C50   C58   1.420269 A    
V2    O20   1.706585 S    
C40   C62   1.392635 A    
C28   C30   1.404437 A    
C24   C36   1.404909 A    
C21   C23   1.400327 A    
O17   V3    2.013287 S    
C13   C15   1.423092 A    
C22   C24   1.400338 A    
C34   H22   1.085399 S    
C23   C35   1.404866 A    
C46   C48   1.414346 A    
C60   H12   1.077199 S    
C10   C20   1.397439 A    
C58   N4    1.420938 S    
C48   C50   1.439210 A    
O8    C4    1.299756 A    
C37   C53   1.403030 A    
C47   C49   1.439223 A    
C29   C33   1.483540 S    
C43   N1    1.442261 S    
C24   H18   1.083104 S    
C1    O11   1.301806 A    
C41   C43   1.396688 A    
O15   V3    2.014558 S    
C21   C29   1.415627 A    
C39   C59   1.408131 A    
C43   C45   1.401207 A    
C9    C19   1.397443 A    
C19   H23   1.083764 S    
C55   H7    1.085380 S    
N1    O22   1.301740 A    
C22   C30   1.415626 A    
O1    V3    2.010196 S    
C53   C55   1.386042 A    
N3    O26   1.299996 A    
C22   N8    1.435603 S    
O3    V1    2.013857 S    
C51   C53   1.417560 A    
C37   C61   1.386935 A    
C11   H1    1.083850 S    
C56   C58   1.389702 A    
O18   V4    2.013285 S    
C31   C33   1.346388 D    
O16   C6    1.294832 A    
C28   H4    1.082830 S    
C56   H8    1.085395 S    
C12   C14   1.400042 A    
C1    C36   1.481937 S    
N10   O40   1.301443 A    
C55   C57   1.389802 A    
N7    O33   1.301462 A    
C30   C34   1.483548 S    
C12   H2    1.083850 S    
N6    O32   1.301482 A    
O16   V4    2.014532 S    
C45   H15   1.074792 S    
C38   C54   1.403017 A    
C37   H9    1.084142 S    
C47   C51   1.440571 A    
C31   H25   1.082698 S    
N4    O28   1.301434 A    
N9    O37   1.298436 A    
N2    O24   1.301742 A    
O5    V1    2.010593 S    
O17   C7    1.296801 A    
O6    V2    2.010615 S    
N1    O21   1.301748 A    
O10   C6    1.296775 A    
O18   C8    1.296795 A    
C25   C35   1.402930 A    
C40   C60   1.408148 A    
O2    V4    2.010203 S    
C26   C36   1.402957 A    
C17   N5    1.439155 S    
O15   C5    1.294843 A    
V3    O19   2.154891 S    
C50   C64   1.437756 A    
C14   C16   1.423096 A    
N9    O38   1.301432 A    
C51   C59   1.426050 A    
C25   H19   1.083143 S    
C3    C64   1.487893 S    
O9    C5    1.296744 A    
O13   V1    2.153993 S    
C10   C12   1.397341 A    
C32   C34   1.346431 D    
C6    C40   1.467574 S    
C46   H16   1.074796 S    
O2    C4    1.300368 A    
C18   N6    1.439135 S    
C33   H21   1.085397 S    
O4    V2    2.013859 S    
C23   H17   1.083082 S    
O1    C3    1.300397 A    
N8    O36   1.298742 A    
C13   N9    1.435395 S    
C44   C46   1.401229 A    
N10   O39   1.298433 A    
C59   H11   1.077200 S    
C44   N2    1.442269 S    
C27   C29   1.404448 A    
N7    O34   1.298723 A    
