data_mof_unit_pretest_1108.cif
_audit_creation_date              2012-12-11T15:45:02-0500
_audit_creation_method            fapswitch 2.2
_symmetry_space_group_name_H-M    P1
_symmetry_Int_Tables_number       1
_space_group_crystal_system       triclinic
_cell_length_a                    6.927173
_cell_length_b                    16.799259
_cell_length_c                    17.067716
_cell_angle_alpha                 100.352737
_cell_angle_beta                  91.299559
_cell_angle_gamma                 89.224694
_cell_volume                      1953.26556222

loop_
_atom_site_label
_atom_site_type_symbol
_atom_type_description
_atom_site_fract_x
_atom_site_fract_y
_atom_site_fract_z
_atom_type_partial_charge
O1    O     O_R   0.494370 0.415690 0.413450 -0.530975
O2    O     O_R   0.819420 0.429360 0.578420 -0.546434
O3    O     O_R   0.994280 0.584310 0.586550 -0.541908
C1    C     C_R   0.654569 0.413836 0.605568 0.700148
O4    O     O_R   0.823790 0.406230 0.413570 -0.549150
O5    O     O_R   0.998670 0.561000 0.420530 -0.529568
C2    C     C_R   0.654049 0.383667 0.384354 0.751292
O6    O     O_R   0.489970 0.439000 0.579470 -0.535610
O7    O     O_3   0.662300 0.550810 0.502470 -0.377695
V1    V     V_3+5 0.935380 0.490570 0.499540 1.396932
O8    O     O_R   0.328650 0.570640 0.421580 -0.551560
C3    C     C_R   0.156424 0.584824 0.393511 0.772636
O9    O     O_R   0.324290 0.593770 0.586430 -0.544840
C4    C     C_R   0.155714 0.616597 0.615261 0.709690
V2    V     V_3+5 0.435930 0.509430 0.500460 1.396266
O10   O     O_3   0.159140 0.449190 0.497530 -0.375425
C5    C     C_R   0.307412 0.730580 0.712398 -0.146260
H1    H     H_    0.444934 0.718221 0.683501 0.142083
C6    C     C_R   0.294065 0.794597 0.777103 -0.208858
H2    H     H_    0.421636 0.830165 0.795464 0.183520
C7    C     C_R   0.118689 0.813354 0.816893 -0.139906
C8    C     C_R   0.955706 0.765091 0.790530 0.442963
C9    C     C_R   0.969167 0.702532 0.724076 -0.220528
H3    H     H_    0.840882 0.667928 0.703996 0.134682
C10   C     C_R   0.144669 0.684168 0.684622 -0.110546
C11   C     C_R   0.131615 0.633432 0.328529 -0.181002
C12   C     C_R   0.133047 0.860093 0.165123 -0.096076
C13   C     C_R   0.320835 0.822469 0.275567 -0.103707
C14   C     C_R   0.284126 0.874922 0.221991 -0.144664
C15   C     C_R   0.021224 0.790494 0.161831 -0.118831
C16   C     C_R   0.061181 0.734783 0.213786 -0.007646
C17   C     C_R   0.210207 0.752657 0.272516 0.127095
C18   C     C_R   0.247529 0.700927 0.327566 -0.336018
C19   C     C_R   0.981409 0.615392 0.270136 0.323842
C20   C     C_R   0.957194 0.661859 0.208726 0.312943
H4    H     H_    0.361341 0.715424 0.372343 0.134242
H5    H     H_    0.437036 0.836377 0.319287 0.100003
H6    H     H_    0.374244 0.927659 0.225129 0.107546
H7    H     H_    0.905620 0.780271 0.117751 0.186432
C21   C     C_R   0.664597 0.361536 0.667509 -0.069325
C22   C     C_R   0.600009 0.139141 0.833107 -0.055640
C23   C     C_R   0.400380 0.195898 0.735924 -0.190746
C24   C     C_R   0.427760 0.140744 0.787513 -0.132394
C25   C     C_R   0.747106 0.193495 0.824524 -0.220609
C26   C     C_R   0.719590 0.249867 0.772849 0.152768
C27   C     C_R   0.544429 0.251365 0.728406 0.163380
C28   C     C_R   0.517107 0.307533 0.676529 -0.234063
C29   C     C_R   0.836569 0.360216 0.713352 -0.152172
C30   C     C_R   0.863601 0.305365 0.765312 -0.169555
H8    H     H_    0.384798 0.307190 0.641305 0.118964
H9    H     H_    0.953004 0.401237 0.708135 0.134298
H10   H     H_    0.265450 0.195584 0.702461 0.113902
H11   H     H_    0.998420 0.305781 0.798869 0.145466
H12   H     H_    0.311409 0.099633 0.792574 0.116883
H13   H     H_    0.879376 0.193800 0.859769 0.144339
C31   C     C_R   0.772435 0.252453 0.305801 -0.260519
H14   H     H_    0.882515 0.249870 0.351394 0.135298
C32   C     C_R   0.760901 0.189094 0.240516 -0.182192
H15   H     H_    0.861219 0.138694 0.237933 0.140813
C33   C     C_R   0.621421 0.189798 0.179580 -0.216268
C34   C     C_R   0.495344 0.257844 0.183741 0.306371
C35   C     C_R   0.496834 0.318568 0.253525 0.378335
C36   C     C_R   0.640433 0.317189 0.313748 -0.175002
O11   O     O_R   0.774880 0.061150 0.920630 -0.545395
O12   O     O_R   0.440980 0.093710 0.086500 -0.506837
O13   O     O_R   0.266190 0.938890 0.079390 -0.542292
C37   C     C_R   0.610395 0.118776 0.113241 0.780423
O14   O     O_R   0.445420 0.070740 0.921670 -0.524771
O15   O     O_R   0.270660 0.915760 0.913380 -0.552610
C38   C     C_R   0.610262 0.086282 0.894533 0.737215
O16   O     O_R   0.770400 0.084270 0.086640 -0.537450
O17   O     O_3   0.602590 0.949210 0.997500 -0.377252
V3    V     V_3+5 0.329470 0.009420 0.000470 1.548763
O18   O     O_R   0.940650 0.906250 0.913470 -0.518789
C39   C     C_R   0.109078 0.882710 0.885125 0.695041
O19   O     O_R   0.936210 0.929220 0.078300 -0.549118
C40   C     C_R   0.108363 0.913252 0.104656 0.678643
V4    V     V_3+5 0.828930 0.990510 0.999490 1.491453
O20   O     O_3   0.105680 0.050790 0.002500 -0.339099
S1    S     S_3+6 0.351327 0.272263 0.099374 0.046042
O21   O     O_2   0.169404 0.224058 0.096768 -0.328132
O22   O     O_2   0.297900 0.359884 0.103109 -0.271487
O23   O     O_3   0.472567 0.240515 0.015118 -0.496838
H16   H     H_    0.593083 0.272318 0.021588 0.335589
O24   O     O_3   0.370471 0.383818 0.259845 -0.533980
C41   C     C_3   0.190537 0.360533 0.285247 -0.060281
H17   H     H_    0.204491 0.336185 0.341628 0.082964
H18   H     H_    0.118523 0.315363 0.238742 0.172674
H19   H     H_    0.095020 0.414655 0.296553 0.179548
O25   O     O_3   0.779251 0.781435 0.826409 -0.576371
C42   C     C_3   0.753444 0.727314 0.879505 -0.148403
H20   H     H_    0.615284 0.742600 0.910602 0.174897
H21   H     H_    0.870887 0.733092 0.925786 0.160447
H22   H     H_    0.743683 0.663715 0.847230 0.139661
O26   O     O_3   0.866200 0.548868 0.270861 -0.548025
C43   C     C_3   0.683676 0.575958 0.300888 -0.037099
H23   H     H_    0.600978 0.607710 0.259180 0.181747
H24   H     H_    0.695734 0.616232 0.360108 0.085235
H25   H     H_    0.598528 0.522524 0.308034 0.176761
S2    S     S_3+6 0.807685 0.625372 0.123581 0.028485
O27   O     O_2   0.624631 0.674913 0.128149 -0.329176
O28   O     O_2   0.910519 0.634052 0.048968 -0.341002
O29   O     O_3   0.750456 0.527417 0.117718 -0.431565
H26   H     H_    0.873012 0.497191 0.105242 0.382944

loop_
_geom_bond_atom_site_label_1
_geom_bond_atom_site_label_2
_ccdc_geom_bond_type
C21   C28   A    
C12   C14   A    
O26   C43   S    
C1    O6    A    
O24   C41   S    
O23   H16   S    
C13   C14   A    
C6    C7    A    
O19   V4    S    
O5    C3    A    
C15   C16   A    
C41   H18   S    
C34   S1    S    
C32   C33   A    
V2    O10   S    
C43   H25   S    
C18   H4    S    
O12   V3    S    
C31   H14   S    
C19   C20   A    
C23   C27   A    
O17   V4    S    
C11   C18   A    
O8    V2    S    
C11   C19   A    
C29   H9    S    
C1    C21   S    
C33   C37   S    
O12   C37   A    
C43   H24   S    
C14   H6    S    
C9    H3    S    
O15   V3    S    
O1    V2    S    
O11   C38   A    
O7    V1    S    
O1    C2    A    
O9    C4    A    
C12   C15   A    
C22   C24   A    
S1    O23   S    
C28   H8    S    
C8    O25   S    
C35   O24   S    
O18   C39   A    
C13   C17   A    
O19   C40   A    
S1    O22   D    
C42   H20   S    
O4    C2    A    
C41   H17   S    
S1    O21   D    
C32   H15   S    
C26   C27   A    
O13   V3    S    
S2    O29   S    
C3    C11   S    
C33   C34   A    
O2    C1    A    
C35   C36   A    
C42   H21   S    
C24   H12   S    
C16   C17   A    
C26   C30   A    
C43   H23   S    
S2    O28   D    
C5    H1    S    
V3    O20   S    
C31   C36   A    
C19   O26   S    
C2    C36   S    
O3    C4    A    
C29   C30   A    
O6    V2    S    
O9    V2    S    
C22   C25   A    
C16   C20   A    
C23   C24   A    
C20   S2    S    
O2    V1    S    
C25   C26   A    
C21   C29   A    
O13   C40   A    
C27   C28   A    
V4    O20   S    
O11   V4    S    
O17   V3    S    
C12   C40   S    
C41   H19   S    
O5    V1    S    
O8    C3    A    
C7    C39   S    
C5    C10   A    
C17   C18   A    
C6    H2    S    
O14   V3    S    
O4    V1    S    
O3    V1    S    
V1    O10   S    
C42   H22   S    
C25   H13   S    
O25   C42   S    
C13   H5    S    
C30   H11   S    
S2    O27   D    
C5    C6    A    
C31   C32   A    
C15   H7    S    
O15   C39   A    
C37   O16   A    
C9    C10   A    
C4    C10   S    
O7    V2    S    
C34   C35   A    
O14   C38   A    
O18   V4    S    
O29   H26   S    
C8    C9    A    
C7    C8    A    
O16   V4    S    
C23   H10   S    
C22   C38   S    
