data_mof_unit_pretest_1702.cif
_audit_creation_date              2012-12-10T21:05:11-0500
_audit_creation_method            fapswitch 2.2
_symmetry_space_group_name_H-M    P1
_symmetry_Int_Tables_number       1
_space_group_crystal_system       triclinic
_cell_length_a                    22.447547
_cell_length_b                    22.460873
_cell_length_c                    15.101448
_cell_angle_alpha                 90.000331
_cell_angle_beta                  89.998319
_cell_angle_gamma                 89.999421
_cell_volume                      7614.02175066

loop_
_atom_site_label
_atom_site_type_symbol
_atom_type_description
_atom_site_fract_x
_atom_site_fract_y
_atom_site_fract_z
_atom_type_partial_charge
C1    C     C_R   0.080402 0.419422 0.499999 0.895689
C2    C     C_R   0.969191 0.544882 0.047314 -0.079441
C3    C     C_R   0.969224 0.544877 0.952674 -0.079437
C4    C     C_R   0.030779 0.455109 0.047329 -0.079459
C5    C     C_R   0.538344 0.961362 0.952664 -0.076037
C6    C     C_R   0.461663 0.038637 0.047330 -0.076514
C7    C     C_R   0.461630 0.038623 0.952685 -0.076442
C8    C     C_R   0.538378 0.961365 0.047310 -0.076902
C9    C     C_R   0.000030 0.499999 0.905090 -0.088533
C10   C     C_R   0.999978 0.499993 0.094912 -0.088587
C11   C     C_R   0.499982 0.999989 0.905084 -0.089152
C12   C     C_R   0.919597 0.580578 0.500001 0.895676
C13   C     C_R   0.500024 0.000003 0.094913 -0.089200
C14   C     C_R   0.225601 0.730305 0.581726 -0.090991
C15   C     C_R   0.774427 0.269667 0.418276 -0.090993
C16   C     C_R   0.774353 0.269738 0.581731 -0.090948
C17   C     C_R   0.225622 0.730287 0.418271 -0.090956
C18   C     C_R   0.774633 0.730619 0.418267 -0.084511
C19   C     C_R   0.225750 0.269774 0.581740 -0.084278
C20   C     C_R   0.225634 0.269651 0.418254 -0.084333
C21   C     C_R   0.773903 0.729882 0.581748 -0.084128
C22   C     C_R   0.726890 0.229058 0.581725 -0.091015
C23   C     C_R   0.919625 0.419403 0.500001 0.895842
C24   C     C_R   0.273085 0.770967 0.418272 -0.090997
C25   C     C_R   0.273063 0.770985 0.581728 -0.091017
C26   C     C_R   0.726965 0.228987 0.418270 -0.091005
C27   C     C_R   0.272892 0.228725 0.418247 -0.088333
C28   C     C_R   0.726626 0.770785 0.581695 -0.088708
C29   C     C_R   0.727391 0.771566 0.418213 -0.088089
C30   C     C_R   0.273018 0.228859 0.581732 -0.088441
C31   C     C_R   0.202603 0.710406 0.499997 -0.022422
C32   C     C_R   0.797398 0.289593 0.500007 -0.022420
C33   C     C_R   0.797220 0.710280 0.500034 -0.025292
C34   C     C_R   0.080375 0.580597 0.499999 0.895849
C35   C     C_R   0.202741 0.289685 0.500000 -0.025261
C36   C     C_R   0.703804 0.209261 0.499994 -0.023365
C37   C     C_R   0.296197 0.790738 0.500002 -0.023364
C38   C     C_R   0.296007 0.208973 0.499986 -0.026094
C39   C     C_R   0.703959 0.790998 0.499929 -0.026059
C40   C     C_1   0.000010 0.499999 0.806911 0.230768
C41   C     C_1   0.999993 0.499997 0.193089 0.231131
C42   C     C_1   0.499995 0.999996 0.806909 0.233749
C43   C     C_1   0.500009 0.000000 0.193090 0.234273
C44   C     C_1   0.159079 0.664609 0.499997 0.047184
C45   C     C_R   0.580413 0.919461 0.499999 0.895640
C46   C     C_1   0.840922 0.335390 0.500005 0.047184
C47   C     C_1   0.840742 0.664472 0.500014 0.048854
C48   C     C_1   0.159232 0.335504 0.499995 0.048758
C49   C     C_1   0.659852 0.163876 0.499995 0.047557
C50   C     C_1   0.340149 0.836123 0.500002 0.047558
C51   C     C_1   0.339958 0.163621 0.499994 0.045946
C52   C     C_1   0.660020 0.836359 0.499965 0.045873
C53   C     C_1   0.876918 0.374026 0.500003 -0.071702
C54   C     C_1   0.123082 0.625973 0.499998 -0.071698
C55   C     C_1   0.123188 0.374105 0.499997 -0.074176
C56   C     C_R   0.419586 0.080539 0.500001 0.895635
C57   C     C_1   0.876799 0.625883 0.500003 -0.074086
C58   C     C_1   0.376537 0.874391 0.500002 -0.070547
C59   C     C_1   0.623464 0.125609 0.499997 -0.070546
C60   C     C_1   0.623571 0.874549 0.499990 -0.074714
C61   C     C_1   0.376418 0.125442 0.500001 -0.074665
C62   C     C_2   0.065137 0.409863 0.097734 0.933097
C63   C     C_2   0.934818 0.590088 0.902280 0.933322
C64   C     C_2   0.934786 0.590144 0.097666 0.932338
C65   C     C_2   0.065312 0.409922 0.902327 0.932598
C66   C     C_2   0.580329 0.922985 0.097658 0.930696
C67   C     C_R   0.419609 0.919421 0.500001 0.895569
C68   C     C_2   0.419646 0.076964 0.902335 0.930432
C69   C     C_2   0.419755 0.077022 0.097723 0.930770
C70   C     C_2   0.580311 0.923050 0.902265 0.930540
C71   C     C_2   0.797988 0.293808 0.666837 0.983259
C72   C     C_2   0.201959 0.706246 0.333165 0.983273
C73   C     C_2   0.201915 0.706282 0.666831 0.983301
C74   C     C_2   0.798140 0.293662 0.333170 0.983304
C75   C     C_2   0.202144 0.293790 0.333091 0.976283
C76   C     C_2   0.796982 0.705316 0.666888 0.976108
C77   C     C_2   0.798421 0.706773 0.333098 0.976393
C78   C     C_R   0.580391 0.080579 0.499999 0.895569
C79   C     C_2   0.202367 0.294033 0.666894 0.976245
C80   C     C_2   0.296647 0.795099 0.666834 0.983775
C81   C     C_2   0.703408 0.204845 0.333164 0.983758
C82   C     C_2   0.703255 0.204992 0.666831 0.983768
C83   C     C_2   0.296693 0.795061 0.333167 0.983744
C84   C     C_2   0.704387 0.796291 0.333091 0.978837
C85   C     C_2   0.296524 0.204645 0.666869 0.978987
C86   C     C_2   0.296252 0.204360 0.333113 0.978908
C87   C     C_2   0.702772 0.794643 0.666845 0.979140
C88   C     C_R   0.030831 0.455121 0.952686 -0.079465
H1    H     H_    0.128461 0.393686 0.189368 0.366028
H2    H     H_    0.219976 0.670832 0.213339 0.370219
H3    H     H_    0.219901 0.670899 0.786685 0.370241
H4    H     H_    0.780193 0.329005 0.213277 0.370235
H5    H     H_    0.220547 0.328365 0.212806 0.362945
H6    H     H_    0.778011 0.670040 0.786522 0.362919
H7    H     H_    0.780438 0.672694 0.212362 0.362985
H8    H     H_    0.220914 0.328811 0.786997 0.362961
H9    H     H_    0.278507 0.830754 0.786459 0.370839
H10   H     H_    0.721587 0.169151 0.213578 0.370826
H11   H     H_    0.721322 0.169407 0.786525 0.370843
H12   H     H_    0.871306 0.606200 0.810908 0.366453
H13   H     H_    0.278587 0.830686 0.213512 0.370826
H14   H     H_    0.723408 0.831996 0.213782 0.364582
H15   H     H_    0.278221 0.169545 0.786813 0.364847
H16   H     H_    0.277733 0.169095 0.213347 0.364720
H17   H     H_    0.720581 0.829301 0.787236 0.365044
H18   H     H_    0.871868 0.606342 0.189923 0.365893
H19   H     H_    0.128357 0.393844 0.810208 0.366265
H20   H     H_    0.645287 0.918313 0.189688 0.359849
H21   H     H_    0.354535 0.081545 0.810519 0.359520
H22   H     H_    0.354467 0.081630 0.189244 0.359553
H23   H     H_    0.645751 0.918584 0.810948 0.359235
H24   H     H_    0.779933 0.329260 0.786624 0.370219
N1    N     N_1   1.000000 0.500000 0.270550 -0.060711
N2    N     N_1   1.000000 0.500000 0.729450 -0.060755
N3    N     N_1   0.500000 0.000000 0.270550 -0.060471
N4    N     N_1   0.500000 0.000000 0.729450 -0.060586
O1    O     O_R   0.061000 0.439020 0.573650 -0.596969
O2    O     O_R   0.439000 0.060980 0.426350 -0.598054
O3    O     O_R   0.439000 0.060980 0.573650 -0.597976
O4    O     O_R   0.561000 0.939020 0.426350 -0.597778
O5    O     O_R   0.439000 0.939020 0.426350 -0.597644
O6    O     O_R   0.561000 0.060980 0.573650 -0.597609
O7    O     O_R   0.561000 0.060980 0.426350 -0.597493
O8    O     O_R   0.439000 0.939020 0.573650 -0.597461
O9    O     O_2   0.053942 0.356925 0.089189 -0.515007
O10   O     O_R   0.109015 0.428293 0.157437 -0.783895
O11   O     O_2   0.946071 0.643028 0.910632 -0.514773
O12   O     O_R   0.939000 0.560980 0.426350 -0.597051
O13   O     O_R   0.890811 0.571617 0.842815 -0.783887
O14   O     O_2   0.945484 0.643123 0.088316 -0.515882
O15   O     O_R   0.891389 0.571712 0.158148 -0.783815
O16   O     O_2   0.054651 0.356928 0.911567 -0.515593
O17   O     O_R   0.108750 0.428435 0.841963 -0.783866
O18   O     O_2   0.579258 0.868945 0.088323 -0.519377
O19   O     O_R   0.619746 0.948882 0.158110 -0.783074
O20   O     O_2   0.420775 0.131018 0.911469 -0.519821
O21   O     O_R   0.380118 0.051007 0.842098 -0.782939
O22   O     O_2   0.421235 0.131102 0.089043 -0.519157
O23   O     O_R   0.939000 0.560980 0.573650 -0.597111
O24   O     O_R   0.379943 0.051063 0.157540 -0.783018
O25   O     O_2   0.578816 0.868960 0.910743 -0.519660
O26   O     O_R   0.620213 0.949099 0.842662 -0.782894
O27   O     O_2   0.851741 0.296020 0.679690 -0.569080
O28   O     O_R   0.758592 0.314059 0.731947 -0.759124
O29   O     O_2   0.148202 0.704038 0.320348 -0.569021
O30   O     O_R   0.241334 0.686015 0.268012 -0.759148
O31   O     O_2   0.148155 0.704072 0.679619 -0.568985
O32   O     O_R   0.241274 0.686070 0.732016 -0.759115
O33   O     O_2   0.851904 0.295868 0.320419 -0.568942
O34   O     O_R   0.061000 0.439020 0.426350 -0.597190
O35   O     O_R   0.758802 0.313851 0.267942 -0.759141
O36   O     O_2   0.148409 0.296396 0.320239 -0.579732
O37   O     O_R   0.241704 0.313518 0.267837 -0.756050
O38   O     O_2   0.850652 0.702682 0.680301 -0.580229
O39   O     O_R   0.757112 0.685207 0.731466 -0.755991
O40   O     O_2   0.852201 0.704117 0.320691 -0.579671
O41   O     O_R   0.759087 0.687369 0.267332 -0.756048
O42   O     O_2   0.148649 0.296657 0.679889 -0.579983
O43   O     O_R   0.242008 0.313865 0.731968 -0.756036
O44   O     O_2   0.350385 0.797164 0.679868 -0.570130
O45   O     O_R   0.939000 0.439020 0.426350 -0.598401
O46   O     O_R   0.257208 0.815541 0.731754 -0.757999
O47   O     O_2   0.649674 0.202774 0.320094 -0.570227
O48   O     O_R   0.742869 0.184382 0.268287 -0.757986
O49   O     O_2   0.649509 0.202932 0.679799 -0.570244
O50   O     O_R   0.742655 0.184589 0.731828 -0.757991
O51   O     O_2   0.350435 0.797126 0.320162 -0.570344
O52   O     O_R   0.257272 0.815485 0.268214 -0.757977
O53   O     O_2   0.650731 0.798912 0.319525 -0.570317
O54   O     O_R   0.744301 0.816607 0.268721 -0.758480
O55   O     O_2   0.350257 0.202204 0.679824 -0.569716
O56   O     O_R   0.061000 0.560980 0.573650 -0.598400
O57   O     O_R   0.256998 0.184597 0.731948 -0.758633
O58   O     O_2   0.349962 0.201863 0.319975 -0.569804
O59   O     O_R   0.256610 0.184238 0.268243 -0.758604
O60   O     O_2   0.648989 0.796951 0.679388 -0.569126
O61   O     O_R   0.742027 0.814498 0.732413 -0.758772
O62   O     O_R   0.061000 0.560980 0.426350 -0.598475
O63   O     O_R   0.939000 0.439020 0.573650 -0.598493
O64   O     O_R   0.561000 0.939020 0.573650 -0.598268
Zn1   Zn    Zn3+2 0.000000 0.500000 0.598370 1.068606
Zn2   Zn    Zn3+2 0.000000 0.500000 0.401630 1.068566
Zn3   Zn    Zn3+2 0.500000 0.000000 0.598370 1.068987
Zn4   Zn    Zn3+2 0.500000 0.000000 0.401630 1.069142

loop_
_geom_bond_atom_site_label_1
_geom_bond_atom_site_label_2
_ccdc_geom_bond_type
H14   O54   S    
C48   C55   T    
C45   C60   S    
C8    C66   S    
C8    C13   A    
C6    C69   S    
C25   C80   S    
C51   C61   T    
C14   C31   A    
C67   O8    A    
C79   O42   D    
N3    Zn4   S    
C15   C32   A    
O34   Zn2   S    
C7    C11   A    
C87   O60   D    
C21   C76   S    
C85   O55   D    
C73   O31   D    
C22   C82   S    
C24   C83   S    
C5    C11   A    
C84   O54   S    
C9    C88   A    
C79   O43   S    
O1    Zn1   S    
C80   O44   D    
C21   C33   A    
C27   C38   A    
C72   O29   D    
N4    Zn3   S    
C4    C62   S    
H15   O57   S    
C30   C38   A    
C11   C42   S    
H21   O21   S    
C86   O59   S    
C76   O38   D    
O45   Zn2   S    
C52   C60   T    
C45   O64   A    
C25   C37   A    
C7    C68   S    
C66   O18   D    
C20   C35   A    
O56   Zn1   S    
C40   N2    T    
H6    O39   S    
C85   O57   S    
C74   O33   D    
H19   O17   S    
C23   O63   A    
H23   O26   S    
O64   Zn3   S    
H11   O50   S    
C43   N3    T    
C69   O24   S    
C39   C52   S    
C10   C41   S    
C81   O47   D    
C68   O21   S    
C16   C71   S    
C56   O2    A    
C28   C87   S    
C35   C48   S    
C67   O5    A    
C59   C78   S    
H3    O32   S    
C2    C64   S    
C23   C53   S    
H16   O59   S    
H1    O10   S    
H18   O15   S    
C70   O26   S    
C17   C24   A    
C31   C44   S    
C73   O32   S    
C50   C58   T    
C14   C73   S    
C68   O20   D    
O12   Zn2   S    
O8    Zn3   S    
C84   O53   D    
H17   O61   S    
C62   O10   S    
H12   O13   S    
C15   C26   A    
O3    Zn3   S    
C38   C51   S    
C28   C39   A    
C83   O51   D    
C9    C40   S    
C20   C75   S    
C86   O58   D    
C15   C74   S    
H13   O52   S    
O7    Zn4   S    
C3    C9    A    
C5    C8    A    
C75   O37   S    
N1    Zn2   S    
C64   O15   S    
C75   O36   D    
C29   C39   A    
H4    O35   S    
C24   C37   A    
C12   O23   A    
C1    O34   A    
C18   C29   A    
C1    O1    A    
C30   C85   S    
C19   C79   S    
C78   O7    A    
O4    Zn4   S    
C80   O46   S    
O62   Zn2   S    
H20   O19   S    
O5    Zn4   S    
C4    C88   A    
C12   C57   S    
C45   O4    A    
C42   N4    T    
O6    Zn3   S    
C21   C28   A    
C64   O14   D    
C34   C54   S    
C26   C81   S    
O2    Zn4   S    
C33   C47   S    
C27   C86   S    
C74   O35   S    
C34   O62   A    
C4    C10   A    
C2    C10   A    
C13   C43   S    
C65   O16   D    
C34   O56   A    
C65   C88   S    
C71   O27   D    
C82   O50   S    
C26   C36   A    
C69   O22   D    
C70   O25   D    
C16   C22   A    
H7    O41   S    
C32   C46   S    
C41   N1    T    
C5    C70   S    
O23   Zn1   S    
C62   O9    D    
H10   O48   S    
C29   C84   S    
C6    C7    A    
C12   O12   A    
C20   C27   A    
C3    C63   S    
C81   O48   S    
C16   C32   A    
N2    Zn1   S    
C22   C36   A    
C83   O52   S    
C76   O39   S    
C49   C59   T    
H24   O28   S    
H5    O37   S    
C2    C3    A    
C1    C55   S    
C77   O40   D    
C19   C35   A    
C6    C13   A    
C37   C50   S    
C18   C77   S    
C17   C31   A    
C46   C53   T    
H22   O24   S    
C56   O3    A    
C63   O13   S    
C14   C25   A    
C78   O6    A    
C18   C33   A    
C63   O11   D    
C66   O19   S    
C44   C54   T    
C58   C67   S    
H8    O43   S    
C17   C72   S    
H2    O30   S    
H9    O46   S    
C47   C57   T    
C72   O30   S    
C56   C61   S    
O63   Zn1   S    
C19   C30   A    
C87   O61   S    
C65   O17   S    
C36   C49   S    
C77   O41   S    
C71   O28   S    
C23   O45   A    
C82   O49   D    
