data_mof_unit_pretest_1497.cif
_audit_creation_date              2012-12-10T20:53:09-0500
_audit_creation_method            fapswitch 2.2
_symmetry_space_group_name_H-M    P1
_symmetry_Int_Tables_number       1
_space_group_crystal_system       triclinic
_cell_length_a                    18.403946
_cell_length_b                    18.339071
_cell_length_c                    18.388633
_cell_angle_alpha                 59.428987
_cell_angle_beta                  59.613678
_cell_angle_gamma                 59.632739
_cell_volume                      4344.48036612

loop_
_atom_site_label
_atom_site_type_symbol
_atom_type_description
_atom_site_fract_x
_atom_site_fract_y
_atom_site_fract_z
_atom_type_partial_charge
Br1   Br    Br    0.281957 0.958848 0.378381 -0.475117
Br2   Br    Br    0.232040 0.643808 0.659239 -0.323089
Br3   Br    Br    0.358911 0.340513 0.763342 -0.330260
Br4   Br    Br    0.641096 0.659489 0.236655 -0.330221
Br5   Br    Br    0.953711 0.598461 0.267627 -0.471993
Br6   Br    Br    0.046280 0.401536 0.732382 -0.471998
Br7   Br    Br    0.486641 0.446738 0.826168 -0.454704
Br8   Br    Br    0.513304 0.553372 0.173823 -0.454623
Br9   Br    Br    0.282215 0.927082 0.668295 -0.464730
Br10  Br    Br    0.717779 0.072922 0.331635 -0.464774
Br11  Br    Br    0.718042 0.041149 0.621618 -0.475136
Br12  Br    Br    0.960821 0.373303 0.282898 -0.456793
Br13  Br    Br    0.039180 0.626696 0.717103 -0.456788
Br14  Br    Br    0.355718 0.283456 0.964339 -0.499982
Br15  Br    Br    0.644278 0.716545 0.035662 -0.499955
Br16  Br    Br    0.339360 0.765949 0.359868 -0.412631
Br17  Br    Br    0.660635 0.234062 0.640116 -0.412699
Br18  Br    Br    0.767955 0.356200 0.340763 -0.323101
C1    C     C_R   0.390287 0.110460 0.109745 0.883373
C2    C     C_R   0.355147 0.825554 0.997619 -0.119949
C3    C     C_R   0.039139 0.546240 0.906144 -0.027014
C4    C     C_R   0.453136 0.093977 0.960346 -0.041751
C5    C     C_R   0.546864 0.906023 0.039653 -0.041766
C6    C     C_R   0.943560 0.948547 0.550422 -0.089556
C7    C     C_R   0.056439 0.051453 0.449577 -0.089555
C8    C     C_R   0.948607 0.550284 0.943548 -0.084278
C9    C     C_R   0.051393 0.449716 0.056453 -0.084280
C10   C     C_R   0.551907 0.943566 0.948437 -0.101341
C11   C     C_R   0.448093 0.056434 0.051562 -0.101336
C12   C     C_R   0.203026 0.236424 0.604529 -0.071947
C13   C     C_R   0.796970 0.763553 0.395501 -0.071928
C14   C     C_R   0.163084 0.607735 0.294914 -0.198468
C15   C     C_R   0.836913 0.392270 0.705079 -0.198478
C16   C     C_R   0.613194 0.253434 0.019157 -0.148131
C17   C     C_R   0.386785 0.746569 0.980785 -0.148144
C18   C     C_R   0.291114 0.188480 0.564616 -0.181056
C19   C     C_R   0.708884 0.811501 0.435415 -0.181015
C20   C     C_R   0.089384 0.587938 0.314505 0.043453
C21   C     C_R   0.609713 0.889540 0.890255 0.883370
C22   C     C_R   0.910612 0.412064 0.685494 0.043456
C23   C     C_R   0.564339 0.334959 0.968952 0.019421
C24   C     C_R   0.435638 0.665068 0.031016 0.019422
C25   C     C_R   0.316630 0.096223 0.583048 0.055731
C26   C     C_R   0.683367 0.903766 0.416955 0.055742
C27   C     C_R   0.056392 0.619441 0.245435 0.310326
C28   C     C_R   0.943601 0.380558 0.754566 0.310332
C29   C     C_R   0.549870 0.337064 0.899496 0.296185
C30   C     C_R   0.450091 0.663014 0.100455 0.296198
C31   C     C_R   0.252750 0.052229 0.642460 0.312646
C32   C     C_R   0.110134 0.110052 0.390554 0.878618
C33   C     C_R   0.747243 0.947763 0.357512 0.312619
C34   C     C_R   0.098784 0.667899 0.158058 -0.145268
C35   C     C_R   0.901206 0.332101 0.841942 -0.145265
C36   C     C_R   0.582496 0.257722 0.882617 -0.122675
C37   C     C_R   0.417458 0.742387 0.117286 -0.122717
C38   C     C_R   0.164770 0.100823 0.682374 -0.163124
C39   C     C_R   0.835221 0.899165 0.317596 -0.163126
C40   C     C_R   0.172270 0.686876 0.139330 -0.175656
C41   C     C_R   0.827720 0.313127 0.860665 -0.175657
C42   C     C_R   0.629181 0.176559 0.934307 -0.163844
C43   C     C_R   0.889866 0.889948 0.609446 0.878618
C44   C     C_R   0.370779 0.823527 0.065569 -0.163814
C45   C     C_R   0.140036 0.192553 0.663555 -0.147722
C46   C     C_R   0.859957 0.807428 0.336445 -0.147699
C47   C     C_R   0.990217 0.590768 0.465478 -0.250279
C48   C     C_R   0.009784 0.409232 0.534522 -0.250266
C49   C     C_R   0.583441 0.472643 0.937627 -0.211636
C50   C     C_R   0.416559 0.527355 0.062379 -0.211636
C51   C     C_R   0.465579 0.991242 0.590243 -0.178730
C52   C     C_R   0.534420 0.008754 0.409758 -0.178707
C53   C     C_R   0.945784 0.551693 0.555838 -0.026627
C54   C     C_R   0.110045 0.390682 0.110037 0.889954
C55   C     C_R   0.054217 0.448307 0.444162 -0.026621
C56   C     C_R   0.553185 0.554389 0.948692 -0.027800
C57   C     C_R   0.446815 0.445610 0.051312 -0.027797
C58   C     C_R   0.555100 0.944328 0.552477 -0.045657
C59   C     C_R   0.444900 0.055668 0.447523 -0.045647
C60   C     C_R   0.956260 0.459266 0.591244 0.041449
C61   C     C_R   0.043740 0.540733 0.408756 0.041448
C62   C     C_R   0.468947 0.582161 0.012021 0.046938
C63   C     C_R   0.531050 0.417841 0.987980 0.046924
C64   C     C_R   0.590066 0.953051 0.461049 0.039690
C65   C     C_R   0.889955 0.609318 0.889963 0.889952
C66   C     C_R   0.409933 0.046944 0.538952 0.039684
C67   C     C_R   0.110495 0.390726 0.389605 0.835002
C68   C     C_R   0.889505 0.609274 0.610395 0.834995
C69   C     C_R   0.390178 0.390016 0.108287 0.830816
C70   C     C_R   0.609822 0.609984 0.891713 0.830812
C71   C     C_R   0.389710 0.110921 0.390477 0.829333
C72   C     C_R   0.610290 0.889078 0.609523 0.829323
C73   C     C_R   0.187451 0.915249 0.416551 0.196681
C74   C     C_R   0.812547 0.084754 0.583445 0.196677
C75   C     C_R   0.916460 0.414197 0.188088 0.196484
C76   C     C_R   0.203996 0.657305 0.207803 -0.139995
C77   C     C_R   0.083539 0.585804 0.811912 0.196482
C78   C     C_R   0.411412 0.188025 0.915796 0.162550
C79   C     C_R   0.588589 0.811976 0.084203 0.162546
C80   C     C_R   0.216625 0.828467 0.415263 0.332208
C81   C     C_R   0.783372 0.171539 0.584729 0.332207
C82   C     C_R   0.830002 0.412655 0.217600 0.330681
C83   C     C_R   0.169995 0.587349 0.782402 0.330679
C84   C     C_R   0.415136 0.217643 0.827059 0.334453
C85   C     C_R   0.584867 0.782358 0.172939 0.334501
C86   C     C_R   0.156585 0.783408 0.456691 -0.168050
C87   C     C_R   0.795997 0.342701 0.792189 -0.140004
C88   C     C_R   0.843412 0.216597 0.543302 -0.168044
C89   C     C_R   0.785036 0.454217 0.157583 -0.140090
C90   C     C_R   0.214962 0.545788 0.842418 -0.140090
C91   C     C_R   0.461717 0.158091 0.780846 -0.163605
C92   C     C_R   0.538285 0.841911 0.219153 -0.163612
C93   C     C_R   0.067908 0.822069 0.501869 -0.188298
C94   C     C_R   0.932090 0.177932 0.498128 -0.188303
C95   C     C_R   0.823456 0.499709 0.068530 -0.182627
C96   C     C_R   0.176543 0.500293 0.931470 -0.182625
C97   C     C_R   0.506587 0.069220 0.820412 -0.199114
C98   C     C_R   0.644823 0.174479 0.002277 -0.119964
C99   C     C_R   0.493414 0.930781 0.179587 -0.199112
C100  C     C_R   0.034526 0.910447 0.502344 0.033150
C101  C     C_R   0.965474 0.089554 0.497655 0.033147
C102  C     C_R   0.911154 0.501217 0.034835 0.027379
C103  C     C_R   0.088845 0.498784 0.965165 0.027378
C104  C     C_R   0.503762 0.035139 0.910014 0.016492
C105  C     C_R   0.496239 0.964861 0.089985 0.016504
C106  C     C_R   0.093533 0.960236 0.454849 -0.029855
C107  C     C_R   0.906467 0.039765 0.545149 -0.029856
C108  C     C_R   0.960860 0.453760 0.093856 -0.027014
H1    H     H_    0.026011 0.781322 0.535491 0.182523
H2    H     H_    0.318489 0.888363 0.957956 0.151947
H3    H     H_    0.183593 0.307663 0.589399 0.180327
H4    H     H_    0.816404 0.692309 0.410653 0.180302
H5    H     H_    0.820617 0.283775 0.543432 0.200762
H6    H     H_    0.179378 0.716232 0.456558 0.200760
H7    H     H_    0.281747 0.546399 0.819367 0.229417
H8    H     H_    0.718250 0.453607 0.180635 0.229403
H9    H     H_    0.535015 0.818705 0.287597 0.209965
H10   H     H_    0.464989 0.181297 0.712401 0.209968
H11   H     H_    0.983854 0.661024 0.438540 0.169304
H12   H     H_    0.973989 0.218678 0.464507 0.182524
H13   H     H_    0.016147 0.338975 0.561460 0.169301
H14   H     H_    0.647222 0.452549 0.887763 0.169858
H15   H     H_    0.352776 0.547452 0.112240 0.169857
H16   H     H_    0.438743 0.985809 0.659973 0.171887
H17   H     H_    0.561256 0.014186 0.340028 0.171895
H18   H     H_    0.204399 0.724854 0.071776 0.157251
H19   H     H_    0.795589 0.275149 0.928217 0.157250
H20   H     H_    0.653466 0.115335 0.921450 0.166353
H21   H     H_    0.346489 0.884774 0.078388 0.166326
H22   H     H_    0.071866 0.229575 0.694543 0.154924
H23   H     H_    0.782992 0.532830 0.026601 0.191429
H24   H     H_    0.928124 0.770404 0.305456 0.154929
H25   H     H_    0.188179 0.585551 0.347450 0.168281
H26   H     H_    0.811820 0.414456 0.652542 0.168277
H27   H     H_    0.625893 0.251020 0.071928 0.164119
H28   H     H_    0.374098 0.748943 0.928028 0.164120
H29   H     H_    0.339361 0.223226 0.518842 0.152759
H30   H     H_    0.660640 0.776752 0.481212 0.152734
H31   H     H_    0.074238 0.691639 0.104690 0.169360
H32   H     H_    0.925749 0.308359 0.895311 0.169361
H33   H     H_    0.571133 0.258847 0.829730 0.212250
H34   H     H_    0.217007 0.467172 0.973399 0.191433
H35   H     H_    0.428810 0.741303 0.170158 0.212202
H36   H     H_    0.115308 0.067582 0.727717 0.167040
H37   H     H_    0.884680 0.932411 0.272230 0.167043
H38   H     H_    0.543250 0.027770 0.778937 0.185477
H39   H     H_    0.456751 0.972231 0.221063 0.185476
H40   H     H_    0.260368 0.672745 0.193412 0.166178
H41   H     H_    0.739625 0.327263 0.806577 0.166176
H42   H     H_    0.681486 0.111652 0.041920 0.151957
O1    O     O_3   0.250000 0.250000 0.250000 -0.492669
O2    O     O_R   0.865800 0.694910 0.573470 -0.656541
O3    O     O_R   0.305090 0.426530 0.134200 -0.646184
O4    O     O_R   0.694910 0.573470 0.865800 -0.646185
O5    O     O_R   0.426530 0.134200 0.305090 -0.650420
O6    O     O_R   0.573470 0.865800 0.694910 -0.650423
O7    O     O_R   0.134190 0.426530 0.134200 -0.616525
O8    O     O_R   0.865810 0.573470 0.865800 -0.616523
O9    O     O_R   0.426530 0.134200 0.134190 -0.632576
O10   O     O_R   0.573470 0.865800 0.865810 -0.632573
O11   O     O_R   0.134200 0.134190 0.426530 -0.622131
O12   O     O_3   0.750000 0.750000 0.750000 -0.492668
O13   O     O_R   0.865800 0.865810 0.573470 -0.622130
O14   O     O_R   0.426530 0.305080 0.134210 -0.631133
O15   O     O_R   0.573470 0.694920 0.865790 -0.631127
O16   O     O_R   0.305080 0.134210 0.426530 -0.619011
O17   O     O_R   0.694920 0.865790 0.573470 -0.619010
O18   O     O_R   0.134210 0.426530 0.305080 -0.615533
O19   O     O_R   0.865790 0.573470 0.694920 -0.615529
O20   O     O_R   0.305080 0.134200 0.134200 -0.600454
O21   O     O_R   0.694920 0.865800 0.865800 -0.600456
O22   O     O_R   0.134200 0.134200 0.305080 -0.607346
O23   O     O_R   0.865800 0.865800 0.694920 -0.607345
O24   O     O_R   0.134200 0.305080 0.134200 -0.600549
O25   O     O_R   0.865800 0.694920 0.865800 -0.600553
O26   O     O_R   0.134200 0.305090 0.426530 -0.656538
Zn1   Zn    Zn3+2 0.206620 0.206630 0.380140 1.025986
Zn2   Zn    Zn3+2 0.793380 0.793370 0.619860 1.025985
Zn3   Zn    Zn3+2 0.206630 0.380140 0.206620 1.036391
Zn4   Zn    Zn3+2 0.793370 0.619860 0.793380 1.036391
Zn5   Zn    Zn3+2 0.380140 0.206620 0.206630 1.014470
Zn6   Zn    Zn3+2 0.619860 0.793380 0.793370 1.014469
Zn7   Zn    Zn3+2 0.206620 0.206620 0.206620 1.073262
Zn8   Zn    Zn3+2 0.793380 0.793380 0.793380 1.073260

loop_
_geom_bond_atom_site_label_1
_geom_bond_atom_site_label_2
_ccdc_geom_bond_type
C50   C62   A    
C30   C37   A    
C14   C76   A    
C3    C8    A    
C37   C44   A    
C24   C62   S    
C8    C65   S    
C47   C61   A    
C4    C11   A    
C78   C84   A    
O5    Zn5   S    
C17   H28   S    
C71   O5    A    
C18   C25   A    
C74   C107  A    
C76   H40   S    
C69   O14   A    
C35   C41   A    
O1    Zn1   S    
O11   Zn1   S    
C50   C57   A    
C22   C28   A    
C59   C71   S    
C35   H32   S    
C41   C87   A    
C42   H20   S    
Br13  C77   S    
C85   C92   A    
C70   O4    A    
C8    C102  A    
C93   C100  A    
C2    H2    S    
C89   H8    S    
C26   C64   S    
C21   O21   A    
C9    C108  A    
C10   C104  A    
C67   O26   A    
C20   C61   S    
C16   C98   A    
C53   C68   S    
Br4   C85   S    
C38   H36   S    
O20   Zn7   S    
C34   H31   S    
C51   C58   A    
C54   O7    A    
C90   C96   A    
C97   H38   S    
O13   Zn2   S    
C17   C24   A    
C75   C108  A    
C89   C95   A    
C20   C27   A    
C36   H33   S    
C7    C32   S    
C96   C103  A    
Br11  C74   S    
O7    Zn3   S    
C48   H13   S    
C99   H39   S    
O9    Zn5   S    
O24   Zn7   S    
O18   Zn3   S    
O4    Zn4   S    
C33   C39   A    
O23   Zn8   S    
C14   C20   A    
C1    O9    A    
O12   Zn2   S    
O1    Zn5   S    
C47   H11   S    
C83   C90   A    
O26   Zn1   S    
C100  C106  A    
C23   C63   S    
C68   O19   A    
Br1   C73   S    
C97   C104  A    
C56   C62   A    
C12   C45   A    
C52   C59   A    
C3    C103  A    
C25   C66   S    
C2    C17   A    
C19   H30   S    
C92   H9    S    
C16   C23   A    
Br18  C82   S    
Br15  C79   S    
C52   C64   A    
Br10  C33   S    
C7    C101  A    
C92   C99   A    
Br14  C78   S    
C4    C104  A    
C13   C19   A    
C9    C103  A    
C88   H5    S    
C48   C60   A    
C15   C22   A    
O19   Zn4   S    
C71   O16   A    
C95   H23   S    
Br9   C31   S    
C37   H35   S    
C58   C64   A    
C25   C31   A    
C70   O15   A    
C88   C94   A    
C43   O13   A    
C3    C77   A    
Br2   C83   S    
C51   H16   S    
C47   C53   A    
C48   C55   A    
Br5   C27   S    
O16   Zn1   S    
C52   H17   S    
O25   Zn8   S    
C87   H41   S    
C46   H24   S    
Br7   C29   S    
C65   O25   A    
O12   Zn8   S    
Br8   C30   S    
O12   Zn6   S    
C94   H12   S    
C1    O20   A    
C86   C93   A    
C95   C102  A    
C39   H37   S    
C69   O3    A    
C23   C29   A    
C38   C45   A    
C15   C87   A    
C50   H15   S    
C49   C56   A    
C24   C30   A    
C5    C10   A    
C36   C42   A    
C49   H14   S    
Br17  C81   S    
C75   C82   A    
C55   C67   S    
C79   C85   A    
C34   C40   A    
C6    C43   S    
C41   H19   S    
C26   C33   A    
C57   C69   S    
C5    C79   A    
C49   C63   A    
C73   C106  A    
C29   C36   A    
C93   H1    S    
C6    C107  A    
C22   C60   S    
Br12  C75   S    
C42   C98   A    
O17   Zn2   S    
C1    C11   S    
C101  C107  A    
C45   H22   S    
C21   O10   A    
Br3   C84   S    
C39   C46   A    
O1    Zn3   S    
C40   C76   A    
C16   H27   S    
C67   O18   A    
C81   C88   A    
O10   Zn6   S    
C82   C89   A    
Br6   C28   S    
C68   O2    A    
C4    C78   A    
C13   C46   A    
C96   H34   S    
C57   C63   A    
O14   Zn5   S    
O8    Zn4   S    
C55   C61   A    
C15   H26   S    
C59   C66   A    
C94   C101  A    
C5    C105  A    
O22   Zn7   S    
C72   O17   A    
O21   Zn8   S    
C13   H4    S    
C31   C38   A    
C72   O6    A    
O6    Zn6   S    
O15   Zn6   S    
C10   C21   S    
C12   C18   A    
C44   H21   S    
C27   C34   A    
C19   C26   A    
C32   O11   A    
C99   C105  A    
C90   H7    S    
O3    Zn3   S    
C51   C66   A    
O2    Zn2   S    
Br16  C80   S    
C14   H25   S    
C80   C86   A    
C11   C105  A    
C28   C35   A    
C6    C100  A    
C102  C108  A    
C73   C80   A    
C2    C44   A    
C32   O22   A    
C7    C106  A    
O12   Zn4   S    
C91   C97   A    
O1    Zn7   S    
C12   H3    S    
C40   H18   S    
C74   C81   A    
C86   H6    S    
C43   O23   A    
C98   H42   S    
C84   C91   A    
C56   C70   S    
C65   O8    A    
C54   O24   A    
C53   C60   A    
C9    C54   S    
C77   C83   A    
C18   H29   S    
C58   C72   S    
C91   H10   S    
