data_mof_unit_pretest_226.cif
_audit_creation_date              2013-03-05T16:47:43-0500
_audit_creation_method            fapswitch 2.2
_symmetry_space_group_name_H-M    P1
_symmetry_Int_Tables_number       1
_space_group_crystal_system       triclinic
_cell_length_a                    10.904239
_cell_length_b                    12.973138
_cell_length_c                    11.852967
_cell_angle_alpha                 98.661694
_cell_angle_beta                  92.604623
_cell_angle_gamma                 91.684314
_cell_volume                      1654.79555881

loop_
_atom_site_label
_atom_site_type_symbol
_atom_site_description
_atom_site_fract_x
_atom_site_fract_y
_atom_site_fract_z
_atom_type_partial_charge
O1    O     O_R   0.506570 0.354460 0.582000 -0.540941
O2    O     O_R   0.493430 0.645540 0.418000 -0.540896
O3    O     O_R   0.490940 0.341410 0.386200 -0.536730
O4    O     O_R   0.509060 0.658590 0.613800 -0.536974
C1    C     C_R   0.502335 0.300107 0.479113 0.915382
C2    C     C_R   0.497678 0.699891 0.520891 0.915009
O5    O     O_R   0.327460 0.506540 0.597900 -0.511299
O6    O     O_R   0.672540 0.493460 0.402100 -0.511399
O7    O     O_R   0.311830 0.493480 0.402100 -0.591734
O8    O     O_R   0.688170 0.506520 0.597900 -0.591856
C3    C     C_R   0.262907 0.503176 0.500971 0.913143
C4    C     C_R   0.737090 0.496902 0.499034 0.913189
Cu1   Cu    Cu3+1 0.509250 0.507730 0.615930 1.113064
Cu2   Cu    Cu3+1 0.490750 0.492270 0.384070 1.113259
H1    H     H_    0.257825 0.799117 0.144323 0.223733
H2    H     H_    0.742101 0.197842 0.852287 0.223905
C5    C     C_R   0.171158 0.800969 0.305454 0.252550
C6    C     C_R   0.829632 0.197629 0.691819 0.250681
C7    C     C_R   0.118412 0.738175 0.380464 0.241180
C8    C     C_R   0.882391 0.261321 0.617714 0.243665
C9    C     C_R   0.121266 0.627699 0.353733 -0.069909
C10   C     C_R   0.878834 0.371681 0.645357 -0.069701
C11   C     C_R   0.164153 0.582736 0.248306 -0.149718
C12   C     C_R   0.835186 0.415690 0.750811 -0.151654
H3    H     H_    0.157865 0.499065 0.222709 0.212801
H4    H     H_    0.840861 0.499280 0.777115 0.212452
C13   C     C_R   0.213034 0.644665 0.174148 -0.177856
C14   C     C_R   0.786261 0.352891 0.824084 -0.175143
H5    H     H_    0.247254 0.608679 0.093813 0.175392
H6    H     H_    0.751432 0.388125 0.904438 0.175626
C15   C     C_R   0.217677 0.752753 0.202837 -0.113891
C16   C     C_R   0.782316 0.244889 0.794467 -0.114382
C17   C     C_R   0.931185 0.551491 0.422977 0.417383
C18   C     C_R   0.068771 0.448958 0.577209 0.416885
C19   C     C_R   0.871391 0.495759 0.498585 -0.093413
C20   C     C_R   0.128598 0.504496 0.501450 -0.093442
C21   C     C_R   0.939707 0.442314 0.574786 -0.093586
C22   C     C_R   0.060285 0.557873 0.425142 -0.093136
C23   C     C_R   0.488068 0.812688 0.532950 -0.203504
C24   C     C_R   0.511996 0.187310 0.467079 -0.204010
C25   C     C_R   0.599895 0.026053 0.384038 -0.114450
C26   C     C_R   0.400225 0.973951 0.616031 -0.115271
C27   C     C_R   0.589623 0.133243 0.387682 0.264114
C28   C     C_R   0.410487 0.866763 0.612386 0.264920
C29   C     C_R   0.437644 0.132494 0.532704 0.444549
C30   C     C_R   0.562453 0.867497 0.467344 0.444317
C31   C     C_R   0.458461 0.026633 0.537141 -0.056371
C32   C     C_R   0.541683 0.973372 0.462941 -0.056722
H7    H     H_    0.656628 0.985088 0.320687 0.215685
H8    H     H_    0.343514 0.014918 0.679400 0.215364
N1    N     N_R   0.523180 0.519350 0.790130 -0.300799
N2    N     N_R   0.476820 0.480650 0.209870 -0.300607
C33   C     C_R   0.426929 0.376970 0.025087 -0.246003
C34   C     C_R   0.573040 0.623052 0.974896 -0.245549
C35   C     C_R   0.425395 0.391461 0.144631 0.434177
C36   C     C_R   0.574658 0.608513 0.855353 0.434339
C37   C     C_R   0.523563 0.558388 0.153976 0.458345
C38   C     C_R   0.476362 0.441642 0.846016 0.457920
C39   C     C_R   0.523969 0.545900 0.032541 -0.148183
C40   C     C_R   0.475959 0.454134 0.967448 -0.148460
H9    H     H_    0.387044 0.304832 0.978315 0.242400
H10   H     H_    0.612943 0.695186 0.021657 0.242330
N3    N     N_R   0.430151 0.345131 0.783308 0.166762
O9    O     O_R   0.501628 0.266106 0.775473 -0.364149
O10   O     O_R   0.312189 0.326667 0.776364 -0.292178
N4    N     N_R   0.569750 0.654906 0.216679 0.166744
O11   O     O_R   0.498214 0.733893 0.224595 -0.363700
O12   O     O_R   0.687700 0.673426 0.223516 -0.292550
N5    N     N_R   0.633002 0.689314 0.804869 0.153677
O13   O     O_R   0.601399 0.785339 0.833347 -0.278564
O14   O     O_R   0.735626 0.672116 0.754903 -0.320372
N6    N     N_R   0.367292 0.310525 0.195090 0.153668
O15   O     O_R   0.398969 0.214547 0.166410 -0.278119
O16   O     O_R   0.264846 0.327580 0.245405 -0.320134
N7    N     N_R   0.178535 0.913134 0.332163 0.161008
O17   O     O_R   0.190439 0.969880 0.251355 -0.256197
O18   O     O_R   0.186224 0.959036 0.437727 -0.299160
N8    N     N_R   0.822992 0.085519 0.664139 0.160163
O19   O     O_R   0.810552 0.028042 0.744217 -0.257105
O20   O     O_R   0.816589 0.040340 0.558308 -0.298784
N9    N     N_R   0.050042 0.785689 0.474579 0.177809
O21   O     O_R   0.970570 0.855527 0.458333 -0.222528
O22   O     O_R   0.054399 0.750727 0.571833 -0.265428
N10   N     N_R   0.951330 0.214817 0.523523 0.178600
O23   O     O_R   0.031401 0.145357 0.539426 -0.223225
O24   O     O_R   0.946734 0.250343 0.426588 -0.265676
O25   O     O_3   0.860432 0.603375 0.351657 -0.632711
H11   H     H_    0.906632 0.614872 0.284426 0.351549
O26   O     O_3   0.139401 0.397290 0.648826 -0.632794
H12   H     H_    0.093245 0.386584 0.716323 0.351259
O27   O     O_3   0.657692 0.816093 0.413274 -0.606614
H13   H     H_    0.727376 0.866293 0.411716 0.384312
O28   O     O_3   0.342353 0.183858 0.586722 -0.606464
H14   H     H_    0.272725 0.133607 0.588298 0.384092
N11   N     N_R   0.341865 0.815254 0.690097 0.170854
O29   O     O_R   0.322320 0.863935 0.791597 -0.258640
O30   O     O_R   0.285863 0.725457 0.655847 -0.343859
N12   N     N_R   0.658319 0.184774 0.310044 0.170887
O31   O     O_R   0.678031 0.136096 0.208582 -0.258298
O32   O     O_R   0.714258 0.274586 0.344360 -0.344300

loop_
_geom_bond_atom_site_label_1
_geom_bond_atom_site_label_2
_geom_bond_distance
_ccdc_geom_bond_type
N4    O12   1.298070 A    
O25   H11   0.989417 S    
N3    O10   1.298075 A    
O28   H14   0.988761 S    
C13   H5    1.082822 S    
C18   C21   1.406178 A    
N11   O29   1.301550 A    
C27   N12   1.439929 S    
C37   N4    1.422138 S    
N7    O17   1.301640 A    
C29   O28   1.380707 S    
N9    O21   1.300934 A    
O5    C3    1.314126 A    
O1    C1    1.311688 A    
C3    C20   1.465402 S    
C19   C21   1.417488 A    
C12   H4    1.081420 S    
N8    O20   1.300056 A    
C37   C39   1.424231 A    
C38   C40   1.424187 A    
N1    C36   1.379787 A    
O4    Cu1   1.961150 S    
N5    O14   1.299188 A    
C17   C19   1.404130 A    
Cu1   N1    2.045860 S    
C33   H9    1.081757 S    
C24   C27   1.415135 A    
Cu2   N2    2.045859 S    
C9    C22   1.491937 S    
C11   C13   1.390078 A    
C18   C20   1.404112 A    
C35   N6    1.430413 S    
N2    C35   1.379905 A    
O6    C4    1.314045 A    
C29   C31   1.406897 A    
N4    O11   1.300770 A    
C39   C40   1.391625 A    
Cu1   Cu2   2.723030 S    
C25   C27   1.392719 A    
O2    C2    1.311715 A    
C26   C28   1.392674 A    
C25   H7    1.081814 S    
N9    O22   1.300227 A    
C33   C40   1.400875 A    
C30   C32   1.406911 A    
C34   C39   1.400962 A    
C33   C35   1.401959 A    
C24   C29   1.399325 A    
C34   C36   1.401982 A    
C13   C15   1.391092 A    
C14   C16   1.391104 A    
N10   O23   1.300892 A    
O4    C2    1.297866 A    
O27   H13   0.988762 S    
N8    O19   1.301634 A    
C30   O27   1.380735 S    
C34   H10   1.081753 S    
C10   C21   1.491816 S    
O7    Cu2   1.972548 S    
N7    O18   1.300137 A    
C31   C32   1.414500 A    
C6    N8    1.440880 S    
N1    C38   1.384685 A    
C4    C19   1.465201 S    
O7    C3    1.300062 A    
O3    Cu2   1.961149 S    
O8    C4    1.300027 A    
C26   H8    1.081813 S    
C23   C30   1.399346 A    
N6    O16   1.299176 A    
C8    C10   1.421901 A    
C36   N5    1.430367 S    
N12   O32   1.299230 A    
C9    C11   1.403609 A    
C5    C15   1.404845 A    
C10   C12   1.403553 A    
O1    Cu1   1.967473 S    
C20   C22   1.417816 A    
C38   N3    1.422173 S    
O6    Cu2   1.983445 S    
C7    C9    1.422038 A    
C12   C14   1.390084 A    
N10   O24   1.300249 A    
N6    O15   1.301431 A    
O3    C1    1.297929 A    
O8    Cu1   1.972548 S    
N11   O30   1.299241 A    
H1    C15   1.082694 S    
C23   C28   1.415145 A    
H2    C16   1.082616 S    
C17   C22   1.406577 A    
C8    N10   1.440685 S    
C17   O25   1.380403 S    
C18   O26   1.380347 S    
C28   N11   1.439970 S    
C14   H6    1.082708 S    
C5    C7    1.421971 A    
C25   C32   1.402016 A    
C6    C8    1.421911 A    
C26   C31   1.402031 A    
C11   H3    1.081453 S    
N5    O13   1.301428 A    
O2    Cu2   1.967474 S    
N2    C37   1.384741 A    
N3    O9    1.300768 A    
O5    Cu1   1.983445 S    
C6    C16   1.404772 A    
N12   O31   1.301550 A    
C1    C24   1.456135 S    
C5    N7    1.440889 S    
C2    C23   1.456059 S    
O26   H12   0.989256 S    
C7    N9    1.440726 S    
