data_mof_unit_pretest_1828.cif
_audit_creation_date              2012-10-26T20:23:17-0400
_audit_creation_method            fapswitch 2.2
_symmetry_space_group_name_H-M    P1
_symmetry_Int_Tables_number       1
_space_group_crystal_system       triclinic
_cell_length_a                    10.692434
_cell_length_b                    12.774119
_cell_length_c                    13.91275
_cell_angle_alpha                 98.076331
_cell_angle_beta                  90.292465
_cell_angle_gamma                 92.783104
_cell_volume                      1879.08942593

loop_
_atom_site_label
_atom_site_type_symbol
_atom_type_description
_atom_site_fract_x
_atom_site_fract_y
_atom_site_fract_z
_atom_type_partial_charge
C1    C     C_R   0.498748 0.483461 0.315937 0.552786
C2    C     C_3   0.961528 0.557906 0.580308 0.183540
C3    C     C_3   0.959798 0.540164 0.421413 -0.078313
C4    C     C_3   0.040202 0.459836 0.578587 -0.078313
C5    C     C_3   0.875970 0.498168 0.499302 0.011534
C6    C     C_3   0.124030 0.501832 0.500698 0.011534
C7    C     C_3   0.955317 0.400417 0.496957 0.197391
C8    C     C_3   0.044683 0.599582 0.503043 0.197391
C9    C     C_1   0.502010 0.526193 0.787285 0.027556
C10   C     C_1   0.497990 0.473807 0.212715 0.027556
C11   C     C_2   0.503640 0.544099 0.978807 0.296185
C12   C     C_R   0.501251 0.516538 0.684063 0.552786
C13   C     C_2   0.496360 0.455901 0.021193 0.296185
C14   C     C_1   0.497240 0.465125 0.125731 0.030336
C15   C     C_1   0.502760 0.534875 0.874269 0.030336
C16   C     C_1   0.915437 0.583273 0.335743 0.245867
C17   C     C_1   0.084563 0.416727 0.664257 0.245867
C18   C     C_1   0.650109 0.022687 0.572865 0.229281
C19   C     C_1   0.349890 0.977313 0.427135 0.229281
C20   C     C_2   0.458559 0.029246 0.478707 -0.065001
C21   C     C_2   0.541441 0.970754 0.521293 -0.065001
C22   C     C_1   0.527839 0.854121 0.517417 0.175794
C23   C     C_1   0.472161 0.145879 0.482583 0.175794
C24   C     C_R   0.259500 0.500734 0.499929 0.590318
C25   C     C_R   0.740500 0.499266 0.500071 0.590318
C26   C     C_3   0.038472 0.442094 0.419692 0.183540
Cu1   Cu    Cu3+1 0.491940 0.395330 0.493960 1.095622
Cu2   Cu    Cu3+1 0.508060 0.604670 0.506040 1.095622
H1    H     H_    0.005508 0.351451 0.299545 0.348201
H2    H     H_    0.994491 0.648549 0.700455 0.348201
H3    H     H_    0.980279 0.252098 0.490702 0.351634
H4    H     H_    0.019721 0.747902 0.509298 0.351634
H5    H     H_    0.483551 0.302749 0.009059 0.337336
H6    H     H_    0.516449 0.697251 0.990941 0.337336
N1    N     N_1   0.479830 0.238040 0.484880 -0.170803
N2    N     N_1   0.520170 0.761960 0.515120 -0.170803
N3    N     N_1   0.880279 0.617219 0.268219 -0.233441
N4    N     N_1   0.119721 0.382781 0.731781 -0.233442
N5    N     N_1   0.737165 0.064327 0.614120 -0.214221
N6    N     N_1   0.262835 0.935673 0.385880 -0.214221
O1    O     O_R   0.492210 0.399110 0.356330 -0.495801
O2    O     O_3   0.918168 0.619125 0.663575 -0.657219
O3    O     O_3   0.906433 0.296293 0.492479 -0.638888
O4    O     O_3   0.093566 0.703707 0.507521 -0.638888
O5    O     O_3   0.488065 0.357445 0.964950 -0.687629
O6    O     O_3   0.511935 0.642555 0.035050 -0.687629
O7    O     O_R   0.507790 0.600890 0.643670 -0.495801
O8    O     O_R   0.505820 0.575890 0.366540 -0.483892
O9    O     O_R   0.494180 0.424110 0.633460 -0.483892
O10   O     O_R   0.310050 0.411620 0.494870 -0.491136
O11   O     O_R   0.689950 0.588380 0.505130 -0.491137
O12   O     O_R   0.323660 0.588400 0.505080 -0.457037
O13   O     O_R   0.676340 0.411600 0.494920 -0.457037
O14   O     O_3   0.081831 0.380874 0.336425 -0.657219

loop_
_geom_bond_atom_site_label_1
_geom_bond_atom_site_label_2
_ccdc_geom_bond_type
C24   O12   A    
C2    C4    S    
C18   N5    T    
C25   O11   A    
C1    O8    A    
H6    O6    S    
C7    O3    S    
C18   C21   S    
H5    O5    S    
Cu1   O1    S    
C19   C20   S    
Cu1   O10   S    
C16   N3    T    
C6    C24   S    
Cu1   O13   S    
C12   O9    A    
C9    C15   T    
Cu2   O7    S    
C13   C14   S    
C13   O5    S    
Cu2   O12   S    
C6    C26   S    
C7    C26   S    
H3    O3    S    
H4    O4    S    
C2    O2    S    
C4    C7    S    
C5    C25   S    
C4    C17   S    
C26   O14   S    
C1    O1    A    
C9    C12   S    
C25   O13   A    
C23   N1    T    
C17   N4    T    
C12   O7    A    
C24   O10   A    
Cu2   O11   S    
C2    C8    S    
C2    C5    S    
C19   N6    T    
C1    C10   S    
C8    O4    S    
C11   C13   D    
C22   N2    T    
C20   C21   D    
Cu2   N2    S    
C4    C6    S    
C3    C8    S    
H1    O14   S    
Cu1   Cu2   S    
C5    C7    S    
H2    O2    S    
C11   O6    S    
C6    C8    S    
Cu1   N1    S    
C21   C22   S    
C20   C23   S    
C11   C15   S    
C3    C26   S    
Cu2   O8    S    
C3    C16   S    
Cu1   O9    S    
C10   C14   T    
C3    C5    S    
