data_mof_unit_pretest_1083.cif
_audit_creation_date              2012-12-10T17:10:22-0500
_audit_creation_method            fapswitch 2.2
_symmetry_space_group_name_H-M    P1
_symmetry_Int_Tables_number       1
_space_group_crystal_system       triclinic
_cell_length_a                    10.786918
_cell_length_b                    12.995678
_cell_length_c                    11.676998
_cell_angle_alpha                 99.790569
_cell_angle_beta                  93.491551
_cell_angle_gamma                 90.39211
_cell_volume                      1609.83960428

loop_
_atom_site_label
_atom_site_type_symbol
_atom_type_description
_atom_site_fract_x
_atom_site_fract_y
_atom_site_fract_z
_atom_type_partial_charge
C1    C     C_R   0.498103 0.299095 0.478676 0.780860
C2    C     C_R   0.501897 0.700905 0.521324 0.780859
C3    C     C_R   0.502989 0.814294 0.533631 -0.055811
C4    C     C_R   0.497010 0.185706 0.466369 -0.055810
C5    C     C_R   0.487164 0.015169 0.344378 -0.221728
C6    C     C_R   0.512836 0.984831 0.655622 -0.221728
C7    C     C_R   0.487917 0.123306 0.355452 -0.192306
C8    C     C_R   0.512083 0.876694 0.644548 -0.192306
C9    C     C_R   0.505212 0.139331 0.566265 -0.282826
C10   C     C_R   0.494788 0.860669 0.433735 -0.282826
C11   C     C_R   0.504538 0.031278 0.555908 0.174001
C12   C     C_R   0.495461 0.968722 0.444092 0.174002
C13   C     C_R   0.387352 0.398422 0.021894 -0.337367
C14   C     C_R   0.612648 0.601578 0.978105 -0.337367
C15   C     C_R   0.397620 0.408546 0.144067 0.092944
C16   C     C_R   0.602379 0.591454 0.855933 0.092944
C17   C     C_R   0.547911 0.544485 0.157007 0.029685
C18   C     C_R   0.452088 0.455515 0.842993 0.029685
C19   C     C_R   0.540713 0.537057 0.034185 0.066545
C20   C     C_R   0.459286 0.462943 0.965815 0.066546
C21   C     C_R   0.262862 0.500148 0.500595 0.798587
C22   C     C_R   0.737137 0.499852 0.499405 0.798588
C23   C     C_R   0.129909 0.317662 0.535240 -0.158981
C24   C     C_R   0.870090 0.682338 0.464760 -0.158980
C25   C     C_R   0.065481 0.228086 0.550253 -0.143675
C26   C     C_R   0.934519 0.771914 0.449748 -0.143677
C27   C     C_R   0.936523 0.227568 0.548391 -0.139180
C28   C     C_R   0.063476 0.772432 0.451610 -0.139180
C29   C     C_R   0.871505 0.316646 0.531580 -0.141974
C30   C     C_R   0.128494 0.683354 0.468420 -0.141975
C31   C     C_R   0.935069 0.408783 0.516587 0.070422
C32   C     C_R   0.064931 0.591217 0.483413 0.070422
C33   C     C_R   0.065747 0.409271 0.518377 0.068679
C34   C     C_R   0.934253 0.590729 0.481623 0.068679
C35   C     C_R   0.870804 0.499549 0.498341 -0.180993
C36   C     C_R   0.129195 0.500451 0.501660 -0.180994
Cu1   Cu    Cu3+1 0.509250 0.507730 0.615930 0.936146
Cu2   Cu    Cu3+1 0.490750 0.492270 0.384070 0.936147
H1    H     H_    0.113446 0.842214 0.440406 0.136832
H2    H     H_    0.886553 0.157786 0.559595 0.136831
H3    H     H_    0.323750 0.340518 0.971809 0.139046
H4    H     H_    0.676250 0.659482 0.028191 0.139046
H5    H     H_    0.230104 0.314007 0.536548 0.125869
H6    H     H_    0.769895 0.685994 0.463452 0.125869
H7    H     H_    0.115862 0.158721 0.562949 0.135894
H8    H     H_    0.884138 0.841279 0.437052 0.135895
H9    H     H_    0.771259 0.312153 0.529804 0.130874
H10   H     H_    0.228740 0.687847 0.470196 0.130874
H11   H     H_    0.487820 0.812933 0.347780 0.154751
H12   H     H_    0.512180 0.187067 0.652220 0.154751
H13   H     H_    0.480135 0.968014 0.258178 0.135926
H14   H     H_    0.519864 0.031986 0.741822 0.135926
H15   H     H_    0.389424 0.398939 0.789582 0.119771
H16   H     H_    0.610575 0.601061 0.210418 0.119771
H17   H     H_    0.658039 0.641669 0.813667 0.126017
H18   H     H_    0.341961 0.358331 0.186333 0.126017
N1    N     N_R   0.523180 0.519350 0.790130 -0.180650
N2    N     N_R   0.476820 0.480650 0.209870 -0.180650
O1    O     O_R   0.506570 0.354460 0.582000 -0.595872
O2    O     O_R   0.493430 0.645540 0.418000 -0.595872
O3    O     O_R   0.490940 0.341410 0.386200 -0.590110
O4    O     O_R   0.509060 0.658590 0.613800 -0.590110
O5    O     O_R   0.327470 0.506520 0.597900 -0.579111
O6    O     O_R   0.672530 0.493480 0.402100 -0.579111
O7    O     O_R   0.311840 0.493460 0.402100 -0.580068
O8    O     O_R   0.688160 0.506540 0.597900 -0.580068
H19   H     H_    0.518586 0.842067 0.722725 0.157801
H20   H     H_    0.481414 0.157933 0.277275 0.157801

loop_
_geom_bond_atom_site_label_1
_geom_bond_atom_site_label_2
_ccdc_geom_bond_type
C11   C12   A    
C31   C33   A    
C22   O8    A    
Cu1   Cu2   S    
C14   C16   A    
C27   C29   A    
C17   H16   S    
C27   H2    S    
C18   N1    A    
C26   C28   A    
C19   C20   A    
C18   H15   S    
Cu2   O7    S    
C17   N2    A    
C14   H4    S    
Cu2   O3    S    
C6    H14   S    
C15   H18   S    
C1    C4    S    
C28   C30   A    
C2    C3    S    
C4    C9    A    
C16   H17   S    
C29   C31   A    
C21   C36   S    
Cu2   N2    S    
Cu1   O8    S    
C30   C32   A    
C22   C35   S    
C9    C11   A    
Cu1   O1    S    
C10   C12   A    
C29   H9    S    
C4    C7    A    
Cu2   O2    S    
C32   C36   A    
C31   C35   A    
C30   H10   S    
C17   C19   A    
C1    O1    A    
C24   C26   A    
Cu1   O4    S    
C18   C20   A    
C16   N1    A    
C23   C25   A    
C13   C15   A    
Cu1   N1    S    
C24   H6    S    
C15   N2    A    
C2    O2    A    
C21   O5    A    
C25   C27   A    
C5    C12   A    
C26   H8    S    
C22   O6    A    
C25   H7    S    
C33   C36   A    
C23   H5    S    
C3    C8    A    
C8    H19   S    
C5    C7    A    
C34   C35   A    
C6    C11   A    
C3    C10   A    
Cu2   O6    S    
C13   H3    S    
C5    H13   S    
C6    C8    A    
C28   H1    S    
C21   O7    A    
C7    H20   S    
Cu1   O5    S    
C10   H11   S    
C14   C19   A    
C13   C20   A    
C24   C34   A    
C9    H12   S    
C2    O4    A    
C1    O3    A    
C23   C33   A    
C32   C34   A    
