data_mof_unit_pretest_644.cif
_audit_creation_date              2012-12-11T15:27:46-0500
_audit_creation_method            fapswitch 2.2
_symmetry_space_group_name_H-M    P1
_symmetry_Int_Tables_number       1
_space_group_crystal_system       triclinic
_cell_length_a                    23.253076
_cell_length_b                    7.299969
_cell_length_c                    15.124817
_cell_angle_alpha                 89.398307
_cell_angle_beta                  108.291464
_cell_angle_gamma                 90.646698
_cell_volume                      2437.44317147

loop_
_atom_site_label
_atom_site_type_symbol
_atom_type_description
_atom_site_fract_x
_atom_site_fract_y
_atom_site_fract_z
_atom_type_partial_charge
O1    O     O_R   0.711000 0.648610 0.341170 -0.536942
O2    O     O_R   0.289000 0.351390 0.658830 -0.536944
O3    O     O_R   0.789000 0.148610 0.158830 -0.534309
O4    O     O_R   0.211000 0.851390 0.841170 -0.534307
O5    O     O_R   0.829650 0.322030 0.336650 -0.537804
O6    O     O_R   0.170350 0.677970 0.663350 -0.537806
O7    O     O_R   0.670350 0.822030 0.163350 -0.536094
O8    O     O_R   0.329650 0.177970 0.836650 -0.536096
C1    C     C_R   0.854274 0.486095 0.356798 0.717480
C2    C     C_R   0.145726 0.513905 0.643202 0.717478
C3    C     C_R   0.645725 0.985493 0.143212 0.717923
C4    C     C_R   0.354275 0.014507 0.856788 0.717924
O9    O     O_R   0.713950 0.319280 0.352070 -0.540365
O10   O     O_R   0.286050 0.680720 0.647930 -0.540365
O11   O     O_R   0.786050 0.819280 0.147930 -0.538263
O12   O     O_R   0.213950 0.180720 0.852070 -0.538264
O13   O     O_R   0.672470 0.142870 0.174360 -0.532036
O14   O     O_R   0.327530 0.857130 0.825640 -0.532034
O15   O     O_R   0.827530 0.642870 0.325640 -0.534461
O16   O     O_R   0.172470 0.357130 0.674360 -0.534459
C5    C     C_R   0.701958 0.486240 0.376172 0.680029
C6    C     C_R   0.298042 0.513760 0.623828 0.680027
C7    C     C_R   0.798100 0.988852 0.123960 0.682234
C8    C     C_R   0.201900 0.011147 0.876039 0.682238
O17   O     O_3   0.736530 0.478650 0.191680 -0.375160
O18   O     O_3   0.263470 0.521350 0.808320 -0.375159
O19   O     O_3   0.763470 0.978650 0.308320 -0.380776
O20   O     O_3   0.236530 0.021350 0.691680 -0.380776
V1    V     V_3+5 0.752500 0.206170 0.260820 1.428658
V2    V     V_3+5 0.247500 0.793830 0.739180 1.428661
V3    V     V_3+5 0.747500 0.706170 0.239180 1.433732
V4    V     V_3+5 0.252500 0.293830 0.760820 1.433734
C9    C     C_R   0.827324 0.004016 0.051744 -0.028151
C10   C     C_R   0.172675 0.995981 0.948255 -0.028156
C11   C     C_R   0.672739 0.488311 0.448531 -0.028188
C12   C     C_R   0.327260 0.511693 0.551467 -0.028191
C13   C     C_R   0.826037 0.116808 0.900864 -0.126729
C14   C     C_R   0.173958 0.883158 0.099127 -0.126696
C15   C     C_R   0.676468 0.428756 0.607169 -0.131247
C16   C     C_R   0.323533 0.571308 0.392836 -0.131244
C17   C     C_R   0.796000 0.079743 0.965350 -0.177984
C18   C     C_R   0.203998 0.920243 0.034647 -0.178000
C19   C     C_R   0.705703 0.444363 0.540144 -0.192803
C20   C     C_R   0.294298 0.555676 0.459859 -0.192784
C21   C     C_R   0.888796 0.964035 0.073740 -0.177477
C22   C     C_R   0.111203 0.035954 0.926257 -0.177476
C23   C     C_R   0.610362 0.515498 0.423481 -0.181022
C24   C     C_R   0.389636 0.484499 0.576515 -0.181028
C25   C     C_R   0.921070 0.003416 0.010292 0.050521
C26   C     C_R   0.078925 0.996542 0.989697 0.050514
C27   C     C_R   0.578799 0.493576 0.489276 0.048083
C28   C     C_R   0.421202 0.506465 0.510725 0.048081
C29   C     C_R   0.888445 0.082513 0.922743 0.036308
C30   C     C_R   0.111549 0.917435 0.077245 0.036321
C31   C     C_R   0.613306 0.451116 0.582820 0.033821
C32   C     C_R   0.386696 0.548951 0.417184 0.033816
C33   C     C_R   0.984773 0.973047 0.032403 -0.008012
C34   C     C_R   0.015220 0.026894 0.967582 -0.008020
C35   C     C_R   0.514397 0.510660 0.464928 -0.010834
C36   C     C_R   0.485604 0.489398 0.535075 -0.010832
C37   C     C_R   0.980986 0.108523 0.882461 -0.244913
C38   C     C_R   0.019005 0.891393 0.117517 -0.244932
C39   C     C_R   0.522121 0.452592 0.627452 -0.254537
C40   C     C_R   0.477881 0.547501 0.372554 -0.254532
C41   C     C_R   0.918550 0.130697 0.858804 0.435215
C42   C     C_R   0.081443 0.869222 0.141177 0.435218
C43   C     C_R   0.584479 0.428804 0.650830 0.430157
C44   C     C_R   0.415524 0.571295 0.349178 0.430160
H1    H     H_    0.089691 0.088698 0.857158 0.096036
H2    H     H_    0.910310 0.911315 0.142843 0.096030
H3    H     H_    0.411904 0.451315 0.648580 0.096272
H4    H     H_    0.588092 0.548634 0.351411 0.096268
H5    H     H_    0.251479 0.886431 0.051358 0.109404
H6    H     H_    0.748519 0.113562 0.948640 0.109391
H7    H     H_    0.245988 0.579372 0.440467 0.116465
H8    H     H_    0.754014 0.420675 0.559538 0.116475
H9    H     H_    0.800430 0.177033 0.834631 0.159205
H10   H     H_    0.199565 0.822930 0.165361 0.159217
H11   H     H_    0.703442 0.395171 0.677854 0.163363
H12   H     H_    0.296560 0.604917 0.322154 0.163363
H13   H     H_    0.001088 0.159648 0.831933 0.140829
H14   H     H_    0.998899 0.840229 0.168034 0.140814
H15   H     H_    0.504101 0.441094 0.684617 0.141186
H16   H     H_    0.495902 0.559041 0.315393 0.141187
C45   C     C_1   0.416769 0.007707 0.918769 -0.186785
C46   C     C_1   0.583231 0.992293 0.081231 -0.186789
C47   C     C_1   0.083237 0.506265 0.581256 -0.189798
C48   C     C_1   0.916763 0.493735 0.418743 -0.189794
C49   C     C_1   0.469145 0.002762 0.969979 0.006367
C50   C     C_1   0.530855 0.997238 0.030021 0.006366
C51   C     C_1   0.030856 0.502049 0.530033 0.006513
C52   C     C_1   0.969144 0.497951 0.469967 0.006515
O21   O     O_3   0.887820 0.216490 0.775592 -0.555350
C53   C     C_3   0.875416 0.086199 0.703730 -0.268209
H17   H     H_    0.847903 0.969567 0.717129 0.140793
H18   H     H_    0.917870 0.035271 0.693763 0.143674
H19   H     H_    0.848554 0.153069 0.637696 0.163723
O22   O     O_3   0.112172 0.783397 0.224379 -0.555351
C54   C     C_3   0.124529 0.913615 0.296272 -0.268191
H20   H     H_    0.082056 0.964353 0.306248 0.143665
H21   H     H_    0.152003 0.030380 0.282903 0.140792
H22   H     H_    0.151412 0.846744 0.362291 0.163709
O23   O     O_3   0.617935 0.395406 0.742772 -0.554407
C55   C     C_3   0.612983 0.207534 0.762172 -0.258503
H23   H     H_    0.629870 0.120490 0.715685 0.137472
H24   H     H_    0.565590 0.168602 0.756703 0.142922
H25   H     H_    0.641499 0.179652 0.834841 0.162773
O24   O     O_3   0.382069 0.604738 0.257241 -0.554409
C56   C     C_3   0.387020 0.792624 0.237871 -0.258510
H26   H     H_    0.434413 0.831571 0.243350 0.142928
H27   H     H_    0.370130 0.879628 0.284369 0.137475
H28   H     H_    0.358505 0.820543 0.165205 0.162776

loop_
_geom_bond_atom_site_label_1
_geom_bond_atom_site_label_2
_ccdc_geom_bond_type
O17   V3    S    
O1    C5    A    
O21   C53   S    
C47   C51   T    
O19   V1    S    
C9    C21   A    
O3    C7    A    
C10   C18   A    
O15   V3    S    
C55   H24   S    
C43   O23   S    
C33   C38   A    
O7    C3    A    
C35   C40   A    
C26   C30   A    
C4    C45   S    
C36   C39   A    
C40   C44   A    
O9    V1    S    
C14   C18   A    
C56   H27   S    
C1    C48   S    
O4    C8    A    
C3    C46   S    
O1    V3    S    
O13   V1    S    
O24   C56   S    
O2    V4    S    
O3    V1    S    
C40   H16   S    
C22   H1    S    
C28   C36   A    
C17   H6    S    
C1    O15   A    
C15   C31   A    
C48   C52   T    
C2    O16   A    
C7    C9    S    
O2    C6    A    
C16   H12   S    
C10   C22   A    
C11   C19   A    
C16   C20   A    
C13   C29   A    
C34   C37   A    
O11   C7    A    
C38   H14   S    
C11   C23   A    
C35   C36   A    
O12   C8    A    
O10   V2    S    
C55   H23   S    
O5    V1    S    
C39   C43   A    
C2    C47   S    
O7    V3    S    
C38   C42   A    
O8    V4    S    
C46   C50   T    
C56   H28   S    
C51   C52   S    
C45   C49   T    
O18   V4    S    
C23   C27   A    
C14   H10   S    
C53   H19   S    
C16   C32   A    
C32   C44   A    
C13   H9    S    
C8    C10   S    
C39   H15   S    
C26   C34   A    
C20   H7    S    
O5    C1    A    
C31   C43   A    
C54   H20   S    
C14   C30   A    
C21   C25   A    
O8    C4    A    
O9    C5    A    
C53   H18   S    
O14   V2    S    
O6    V2    S    
C12   C20   A    
C27   C35   A    
C24   H3    S    
C29   C41   A    
O16   V4    S    
C19   H8    S    
C3    O13   A    
C18   H5    S    
C54   H21   S    
C21   H2    S    
O6    C2    A    
C25   C33   A    
C15   C19   A    
O11   V3    S    
C30   C42   A    
O12   V4    S    
C6    C12   S    
C22   C26   A    
C9    C17   A    
O10   C6    A    
O20   V2    S    
C5    C11   S    
C37   H13   S    
C56   H26   S    
C42   O22   S    
C33   C34   A    
C25   C29   A    
C41   O21   S    
C12   C24   A    
C27   C31   A    
C13   C17   A    
C53   H17   S    
C23   H4    S    
C37   C41   A    
C24   C28   A    
C54   H22   S    
O22   C54   S    
C4    O14   A    
O23   C55   S    
C44   O24   S    
C49   C50   S    
C55   H25   S    
O4    V2    S    
C28   C32   A    
C15   H11   S    
