data_mof_unit_pretest_1840.cif
_audit_creation_date              2012-12-10T17:47:53-0500
_audit_creation_method            fapswitch 2.2
_symmetry_space_group_name_H-M    P1
_symmetry_Int_Tables_number       1
_space_group_crystal_system       triclinic
_cell_length_a                    23.569012
_cell_length_b                    31.901989
_cell_length_c                    23.57425
_cell_angle_alpha                 90.00044
_cell_angle_beta                  90.002164
_cell_angle_gamma                 90.000746
_cell_volume                      17725.4399355

loop_
_atom_site_label
_atom_site_type_symbol
_atom_type_description
_atom_site_fract_x
_atom_site_fract_y
_atom_site_fract_z
_atom_type_partial_charge
C1    C     C_R   0.499932 0.999998 0.390432 0.910231
C2    C     C_1   0.499384 0.163135 0.499849 0.088652
C3    C     C_3   0.999730 0.708498 0.999746 -0.049474
C4    C     C_3   0.499691 0.708600 0.500285 -0.008524
C5    C     C_3   0.499682 0.291400 0.499728 -0.008503
C6    C     C_3   0.000375 0.208645 0.000559 -0.007457
C7    C     C_3   0.999706 0.791400 0.999719 -0.008531
C8    C     C_3   0.460548 0.752164 0.354897 0.105222
C9    C     C_3   0.481691 0.764328 0.295914 -0.324386
C10   C     C_3   0.461241 0.733388 0.250975 -0.968850
C11   C     C_3   0.462530 0.247838 0.645635 0.105240
C12   C     C_3   0.484487 0.235679 0.704323 -0.324456
C13   C     C_1   0.999334 0.336838 0.000287 0.086354
C14   C     C_3   0.464659 0.266620 0.749535 -0.968725
C15   C     C_3   0.394589 0.247289 0.391850 0.104664
C16   C     C_3   0.333111 0.235589 0.378876 -0.321537
C17   C     C_3   0.306579 0.265978 0.336501 -0.972154
C18   C     C_3   0.396075 0.752704 0.609574 0.104520
C19   C     C_3   0.334782 0.764407 0.623382 -0.321987
C20   C     C_3   0.308815 0.734000 0.666081 -0.970611
C21   C     C_3   0.921697 0.251734 0.871977 0.103754
C22   C     C_3   0.925742 0.263833 0.809428 -0.323335
C23   C     C_3   0.894043 0.232679 0.771894 -0.968705
C24   C     C_1   0.999388 0.663135 0.999854 0.088657
C25   C     C_3   0.958901 0.747852 0.144658 0.105239
C26   C     C_3   0.979324 0.735683 0.203894 -0.324353
C27   C     C_3   0.958340 0.766625 0.248581 -0.968875
C28   C     C_3   0.897316 0.747296 0.889279 0.104516
C29   C     C_3   0.836124 0.735670 0.874911 -0.321977
C30   C     C_3   0.810687 0.766015 0.831813 -0.970581
C31   C     C_3   0.946311 0.266939 0.142729 0.115497
C32   C     C_3   0.916911 0.224454 0.150882 -0.371460
C33   C     C_3   0.924996 0.208163 0.211173 -0.952911
C34   C     C_3   0.585716 0.720229 0.424401 -0.864379
C35   C     C_1   0.499818 0.663234 0.500112 0.023770
C36   C     C_3   0.586735 0.279774 0.574439 -0.864430
C37   C     C_3   0.524945 0.280664 0.388113 -0.898487
C38   C     C_3   0.526475 0.719336 0.611547 -0.899454
C39   C     C_3   0.061440 0.220429 0.903592 -0.864191
C40   C     C_3   0.084870 0.779777 0.076575 -0.864378
C41   C     C_3   0.027734 0.780643 0.888765 -0.899468
C42   C     C_3   0.060848 0.217886 0.096930 -0.905138
C43   C     C_3   0.390043 0.719784 0.466021 -0.889899
C44   C     C_3   0.390511 0.280213 0.535474 -0.889938
C45   C     C_3   0.885573 0.219381 0.998323 -0.871079
C46   C     C_1   0.499812 0.336766 0.499894 0.023756
C47   C     C_3   0.889676 0.780227 0.032729 -0.889957
C48   C     C_3   0.608419 0.780668 0.535307 -0.852308
C49   C     C_3   0.607925 0.219335 0.463239 -0.852081
C50   C     C_3   0.113804 0.281264 0.003165 -0.853702
C51   C     C_3   0.108813 0.719324 0.965946 -0.852312
C52   C     C_1   0.000252 0.163257 0.000194 0.020314
C53   C     C_1   0.999831 0.836766 0.999887 0.023760
C54   C     C_1   0.499923 0.999994 0.330296 -0.184453
C55   C     C_1   0.499928 0.000005 0.669703 -0.184448
C56   C     C_1   0.999922 0.499997 0.830297 -0.184823
C57   C     C_R   0.499934 0.000002 0.609568 0.910268
C58   C     C_1   0.999928 0.500003 0.169703 -0.185096
C59   C     C_1   0.500036 0.999993 0.279591 0.009415
C60   C     C_1   0.500042 0.000007 0.720409 0.009373
C61   C     C_1   0.000034 0.499996 0.779591 0.009238
C62   C     C_1   0.000042 0.500004 0.220409 0.008565
C63   C     C_1   0.500285 0.999995 0.220399 0.008585
C64   C     C_1   0.500290 0.000005 0.779601 0.008490
C65   C     C_1   0.000283 0.499998 0.720399 0.008493
C66   C     C_1   0.000290 0.500003 0.279601 0.007725
C67   C     C_1   0.500562 0.999998 0.169693 -0.185918
C68   C     C_R   0.999932 0.499999 0.890432 0.909912
C69   C     C_1   0.500565 0.000002 0.830307 -0.186035
C70   C     C_1   0.000560 0.499999 0.669693 -0.186077
C71   C     C_1   0.000565 0.500001 0.330307 -0.186663
C72   C     C_R   0.609853 0.500000 0.500001 0.908378
C73   C     C_R   0.109853 0.000000 0.000001 0.908255
C74   C     C_R   0.500034 0.581469 0.500002 0.908394
C75   C     C_R   0.500034 0.418531 0.499999 0.908380
C76   C     C_R   0.000045 0.081475 0.000002 0.908553
C77   C     C_R   0.000036 0.918531 0.999998 0.908315
C78   C     C_R   0.390614 0.500000 0.499999 0.910000
C79   C     C_R   0.999934 0.500001 0.109568 0.910009
C80   C     C_R   0.890614 0.000001 0.999999 0.910037
C81   C     C_R   0.499762 0.918640 0.500004 0.904034
C82   C     C_R   0.499762 0.081360 0.499998 0.904039
C83   C     C_R   0.999760 0.418633 0.999998 0.903225
C84   C     C_R   0.999762 0.581360 0.999998 0.904131
C85   C     C_R   0.392017 1.000000 0.000000 0.889652
C86   C     C_R   0.892017 0.500000 0.500000 0.889802
C87   C     C_R   0.500918 1.000000 0.109558 0.905939
C88   C     C_R   0.500919 0.000000 0.890442 0.905866
C89   C     C_R   0.000918 0.500000 0.609557 0.906048
C90   C     C_3   0.448094 0.736299 0.483602 -0.020912
C91   C     C_R   0.000918 0.500000 0.390442 0.905991
C92   C     C_R   0.610976 0.000000 1.000000 0.921242
C93   C     C_R   0.110976 0.500000 0.500000 0.921305
C94   C     C_1   0.670298 0.500000 0.500003 -0.190982
C95   C     C_1   0.170298 0.000000 0.000003 -0.191037
C96   C     C_1   0.721190 0.499999 0.500003 0.008116
C97   C     C_1   0.221190 0.000000 0.000004 0.008034
C98   C     C_1   0.280679 1.000000 0.000003 0.009375
C99   C     C_1   0.780679 0.499999 0.500002 0.009387
C100  C     C_1   0.331571 0.999999 0.000002 -0.180307
C101  C     C_3   0.448318 0.263699 0.517109 -0.020863
C102  C     C_1   0.831571 0.499999 0.500001 -0.180435
C103  C     C_1   0.330780 0.500000 0.499997 -0.190456
C104  C     C_1   0.830780 0.000001 0.999997 -0.190117
C105  C     C_1   0.280249 0.500000 0.499997 0.004577
C106  C     C_1   0.780249 0.000001 0.999996 0.004912
C107  C     C_1   0.721344 0.000001 0.999996 0.005326
C108  C     C_1   0.221344 0.500001 0.499997 0.005016
C109  C     C_3   0.539832 0.736269 0.464319 0.093605
C110  C     C_3   0.540310 0.263732 0.535147 0.093661
C111  C     C_3   0.510490 0.263832 0.446793 0.075644
C112  C     C_3   0.946067 0.236183 0.999100 -0.001812
C113  C     C_3   0.511219 0.736167 0.553069 0.076087
C114  C     C_3   0.028459 0.236369 0.954748 0.094949
C115  C     C_3   0.039435 0.763733 0.036144 0.093616
C116  C     C_3   0.011823 0.763826 0.947075 0.076089
C117  C     C_3   0.026127 0.236160 0.048180 0.062741
C118  C     C_1   0.670812 0.000001 0.999998 -0.193034
C119  C     C_1   0.170812 0.500001 0.499999 -0.193367
C120  C     C_3   0.488580 0.763844 0.448072 0.438769
C121  C     C_3   0.489285 0.236156 0.552087 0.438765
C122  C     C_3   0.459580 0.236201 0.464430 0.443078
C123  C     C_3   0.947922 0.763705 0.015824 -0.020892
C124  C     C_3   0.460073 0.763798 0.536124 0.443074
C125  C     C_3   0.974591 0.263732 0.953592 0.439345
C126  C     C_3   0.988001 0.736162 0.051816 0.438746
C127  C     C_3   0.960488 0.736200 0.963448 0.443149
C128  C     C_3   0.971803 0.263826 0.046406 0.451380
C129  C     C_1   0.499405 0.874280 0.500080 -0.170874
C130  C     C_1   0.499405 0.125720 0.499929 -0.170838
C131  C     C_1   0.999389 0.374261 0.000129 -0.172120
C132  C     C_1   0.999406 0.625719 0.999931 -0.170875
C133  C     C_1   0.499924 0.625825 0.500024 -0.195753
C134  C     C_1   0.499387 0.836865 0.500165 0.088646
C135  C     C_1   0.499920 0.374175 0.499979 -0.195722
C136  C     C_1   0.000138 0.125842 0.000037 -0.194725
C137  C     C_1   0.999931 0.874175 0.999975 -0.195743
C138  C     C_3   0.550814 0.764023 0.516830 0.116765
C139  C     C_3   0.550576 0.235979 0.482492 0.116706
C140  C     C_3   0.053531 0.264152 0.002007 0.115614
C141  C     C_3   0.051005 0.735973 0.983766 0.116750
C142  C     C_3   0.499725 0.791502 0.500278 -0.049450
C143  C     C_3   0.499718 0.208498 0.499736 -0.049399
C144  C     C_3   0.999627 0.291455 0.000516 -0.057175
H1    H     H_    0.413396 0.752172 0.354679 0.159218
H2    H     H_    0.468992 0.203794 0.715379 0.234430
H3    H     H_    0.121379 0.300704 0.964872 0.244391
H4    H     H_    0.119855 0.300793 0.041645 0.239606
H5    H     H_    0.137779 0.745945 0.957061 0.245675
H6    H     H_    0.126879 0.699872 0.000539 0.243852
H7    H     H_    0.104262 0.699920 0.927144 0.242694
H8    H     H_    0.531648 0.235079 0.703657 0.227649
H9    H     H_    0.480717 0.298585 0.739956 0.265835
H10   H     H_    0.481218 0.256846 0.791599 0.270956
H11   H     H_    0.417575 0.267306 0.751469 0.266693
H12   H     H_    0.419443 0.246114 0.351822 0.156729
H13   H     H_    0.395302 0.279995 0.408469 0.134966
H14   H     H_    0.331536 0.203334 0.361091 0.233617
H15   H     H_    0.308062 0.236126 0.418830 0.229180
H16   H     H_    0.306602 0.298324 0.353957 0.266214
H17   H     H_    0.475678 0.719803 0.364372 0.134542
H18   H     H_    0.262049 0.256550 0.327918 0.270508
H19   H     H_    0.330530 0.265536 0.295921 0.266927
H20   H     H_    0.421471 0.753872 0.649262 0.156631
H21   H     H_    0.396556 0.720000 0.592939 0.135042
H22   H     H_    0.333458 0.796653 0.641217 0.233655
H23   H     H_    0.309194 0.763894 0.583767 0.229333
H24   H     H_    0.308580 0.701664 0.648589 0.266198
H25   H     H_    0.264412 0.743436 0.675279 0.270998
H26   H     H_    0.333319 0.734410 0.706331 0.266781
H27   H     H_    0.876298 0.251527 0.884703 0.159324
H28   H     H_    0.466041 0.796212 0.285075 0.234429
H29   H     H_    0.939104 0.219455 0.877016 0.133195
H30   H     H_    0.907424 0.295616 0.803214 0.234575
H31   H     H_    0.971098 0.264647 0.796516 0.227465
H32   H     H_    0.912478 0.200813 0.776530 0.265801
H33   H     H_    0.897719 0.242414 0.726824 0.270849
H34   H     H_    0.848396 0.231773 0.783570 0.266818
H35   H     H_    0.911751 0.747853 0.144303 0.159243
H36   H     H_    0.974160 0.780210 0.135367 0.134534
H37   H     H_    0.963533 0.703801 0.214539 0.234465
H38   H     H_    0.026485 0.735073 0.204451 0.227646
H39   H     H_    0.528855 0.764930 0.295932 0.227659
H40   H     H_    0.974657 0.798588 0.239427 0.265801
H41   H     H_    0.973796 0.756843 0.291059 0.270914
H42   H     H_    0.911222 0.767323 0.249291 0.266731
H43   H     H_    0.923089 0.746059 0.849840 0.156726
H44   H     H_    0.897722 0.780016 0.905861 0.134943
H45   H     H_    0.834863 0.703382 0.857215 0.233804
H46   H     H_    0.810148 0.736332 0.914267 0.229223
H47   H     H_    0.810453 0.798405 0.849119 0.266172
H48   H     H_    0.766323 0.756667 0.822266 0.271013
H49   H     H_    0.835549 0.765416 0.791788 0.266789
H50   H     H_    0.477432 0.701423 0.260329 0.265822
H51   H     H_    0.927078 0.289399 0.173172 0.165740
H52   H     H_    0.991913 0.266009 0.153904 0.139328
H53   H     H_    0.870797 0.227925 0.142216 0.234578
H54   H     H_    0.934386 0.201017 0.120853 0.224217
H55   H     H_    0.970849 0.203926 0.220456 0.264719
H56   H     H_    0.903370 0.177429 0.215774 0.270808
H57   H     H_    0.906453 0.230445 0.242276 0.266173
H58   H     H_    0.605496 0.747050 0.401889 0.251138
H59   H     H_    0.618650 0.703425 0.449186 0.246349
H60   H     H_    0.567159 0.698314 0.392966 0.230799
H61   H     H_    0.477216 0.743166 0.208688 0.270919
H62   H     H_    0.606820 0.252953 0.596682 0.251179
H63   H     H_    0.619328 0.296578 0.549209 0.246324
H64   H     H_    0.568608 0.301689 0.606122 0.230784
H65   H     H_    0.528370 0.254263 0.357669 0.246136
H66   H     H_    0.491595 0.302780 0.373760 0.228531
H67   H     H_    0.566076 0.297545 0.389829 0.257510
H68   H     H_    0.530314 0.745737 0.641942 0.245997
H69   H     H_    0.493324 0.697218 0.626351 0.228606
H70   H     H_    0.567578 0.702456 0.609274 0.257403
H71   H     H_    0.073885 0.247281 0.876387 0.250755
H72   H     H_    0.414135 0.732699 0.249689 0.266704
H73   H     H_    0.100144 0.203815 0.918178 0.246714
H74   H     H_    0.035000 0.198365 0.878659 0.230703
H75   H     H_    0.104394 0.752957 0.099314 0.251133
H76   H     H_    0.118080 0.796579 0.052161 0.246340
H77   H     H_    0.065961 0.801695 0.107795 0.230796
H78   H     H_    0.031900 0.754234 0.858424 0.246003
H79   H     H_    0.994758 0.802763 0.873581 0.228606
H80   H     H_    0.068816 0.797515 0.891491 0.257384
H81   H     H_    0.079547 0.243519 0.122647 0.238642
H82   H     H_    0.034081 0.197548 0.124018 0.244425
H83   H     H_    0.415387 0.247828 0.646500 0.159228
H84   H     H_    0.095954 0.198656 0.079400 0.257657
H85   H     H_    0.361730 0.746460 0.455513 0.258274
H86   H     H_    0.394354 0.698993 0.428575 0.227644
H87   H     H_    0.371001 0.701336 0.501005 0.242616
H88   H     H_    0.362346 0.253535 0.546368 0.258269
H89   H     H_    0.395332 0.301006 0.572856 0.227682
H90   H     H_    0.370992 0.298656 0.500749 0.242574
H91   H     H_    0.855233 0.245890 0.995523 0.261800
H92   H     H_    0.879642 0.198233 0.961466 0.220905
H93   H     H_    0.877015 0.201287 0.037491 0.242114
H94   H     H_    0.477525 0.280200 0.635950 0.134542
H95   H     H_    0.861245 0.753553 0.042933 0.258277
H96   H     H_    0.893563 0.801033 0.070207 0.227648
H97   H     H_    0.871032 0.798658 0.997515 0.242648
H98   H     H_    0.637281 0.754045 0.544514 0.245685
H99   H     H_    0.626875 0.800123 0.500926 0.243868
H100  H     H_    0.603434 0.800067 0.574059 0.242673
H101  H     H_    0.636658 0.245958 0.453642 0.245701
H102  H     H_    0.626847 0.199881 0.497368 0.243852
H103  H     H_    0.602413 0.199935 0.424559 0.242747
H104  H     H_    0.144473 0.254881 0.003814 0.247269
O1    O     O_R   0.546670 0.000000 0.417240 -0.616221
O2    O     O_R   0.453230 1.000000 0.582690 -0.613023
O3    O     O_R   0.953230 0.500000 0.917310 -0.612721
O4    O     O_R   0.953230 0.500000 0.082690 -0.612656
O5    O     O_R   0.546670 0.938190 0.500000 -0.619872
O6    O     O_R   0.546670 0.061810 0.500000 -0.619805
O7    O     O_R   0.046670 0.438190 0.000000 -0.621053
O8    O     O_R   0.046670 0.561810 0.000000 -0.619842
O9    O     O_R   0.453220 0.938690 0.500000 -0.608562
O10   O     O_R   0.453220 0.061310 0.500000 -0.608583
O11   O     O_R   0.953220 0.438690 0.000000 -0.607139
O12   O     O_R   0.546670 1.000000 0.582760 -0.616236
O13   O     O_R   0.953220 0.561310 0.000000 -0.608482
O14   O     O_R   0.582830 0.500000 0.453340 -0.614188
O15   O     O_R   0.582830 0.500000 0.546660 -0.614312
O16   O     O_R   0.082830 0.000000 0.953340 -0.614195
O17   O     O_R   0.082830 1.000000 0.046660 -0.614354
O18   O     O_R   0.500060 0.561660 0.453320 -0.617781
O19   O     O_R   0.500060 0.438340 0.546680 -0.617820
O20   O     O_R   0.500060 0.438340 0.453320 -0.616441
O21   O     O_R   0.500060 0.561660 0.546680 -0.616532
O22   O     O_R   0.000060 0.061660 0.953320 -0.617733
O23   O     O_R   0.046670 0.500000 0.917240 -0.616521
O24   O     O_R   0.000060 0.938340 0.046680 -0.617833
O25   O     O_R   0.000060 0.938340 0.953320 -0.616568
O26   O     O_R   0.000060 0.061660 0.046680 -0.616025
O27   O     O_R   0.417300 0.500000 0.453300 -0.616793
O28   O     O_R   0.417300 0.500000 0.546700 -0.616742
O29   O     O_R   0.917300 0.000000 0.953300 -0.617020
O30   O     O_R   0.917300 0.000000 0.046700 -0.616400
O31   O     O_R   0.418390 0.964110 0.000000 -0.611867
O32   O     O_R   0.418390 0.035890 0.000000 -0.611871
O33   O     O_R   0.918390 0.464110 0.500000 -0.612065
O34   O     O_R   0.046670 0.500000 0.082760 -0.616496
O35   O     O_R   0.918390 0.535890 0.500000 -0.611783
O36   O     O_R   0.501120 0.965270 0.082820 -0.614426
O37   O     O_R   0.501120 0.034730 0.917180 -0.614406
O38   O     O_R   0.501120 0.034730 0.082820 -0.614290
O39   O     O_R   0.501120 0.965270 0.917180 -0.614431
O40   O     O_R   0.001120 0.465270 0.582820 -0.614359
O41   O     O_R   0.001120 0.534730 0.417180 -0.614162
O42   O     O_R   0.001120 0.534730 0.582820 -0.614394
O43   O     O_R   0.001120 0.465270 0.417180 -0.615117
O44   O     O_3   0.479632 0.782291 0.394369 -0.630225
O45   O     O_R   0.583860 0.966430 0.000000 -0.616355
O46   O     O_3   0.481070 0.217710 0.605907 -0.630231
O47   O     O_3   0.417203 0.217742 0.430233 -0.628305
O48   O     O_3   0.418168 0.782254 0.570894 -0.628282
O49   O     O_3   0.950590 0.282058 0.904638 -0.628657
O50   O     O_3   0.978452 0.717723 0.105419 -0.630192
O51   O     O_3   0.918968 0.717747 0.928211 -0.628285
O52   O     O_3   0.937037 0.283139 0.087911 -0.632819
O53   O     O_R   0.583860 0.033570 0.000000 -0.616162
O54   O     O_R   0.083860 0.466430 0.500000 -0.616440
O55   O     O_R   0.083860 0.533570 0.500000 -0.616246
O56   O     O_R   0.453230 0.000000 0.417310 -0.613045
Zn1   Zn    Zn3+2 0.562350 0.000000 0.500000 0.973343
Zn2   Zn    Zn3+2 0.501530 0.046390 0.000000 0.972767
Zn3   Zn    Zn3+2 0.001530 0.453610 0.500000 0.971286
Zn4   Zn    Zn3+2 0.001530 0.546390 0.500000 0.972449
Zn5   Zn    Zn3+2 0.062350 0.500000 0.000000 0.972038
Zn6   Zn    Zn3+2 0.437550 0.000000 0.500000 0.986432
Zn7   Zn    Zn3+2 0.937550 0.500000 0.000000 0.987946
Zn8   Zn    Zn3+2 0.500080 0.500000 0.437650 0.968347
Zn9   Zn    Zn3+2 0.500080 0.500000 0.562350 0.968137
Zn10  Zn    Zn3+2 0.000080 0.000000 0.937650 0.968288
Zn11  Zn    Zn3+2 0.000080 0.000000 0.062350 0.968815
Zn12  Zn    Zn3+2 0.501530 0.953610 0.000000 0.972406

loop_
_geom_bond_atom_site_label_1
_geom_bond_atom_site_label_2
_ccdc_geom_bond_type
C50   H3    S    
C11   O46   S    
C20   H26   S    
C115  C141  S    
C121  O46   S    
C39   H74   S    
C19   C20   S    
C111  C139  S    
C75   O19   A    
O56   Zn6   S    
C91   O43   A    
C53   C137  T    
C10   H61   S    
C50   C140  S    
C106  C107  S    
C33   H55   S    
C125  C144  S    
C96   C99   S    
C6    C52   S    
O6    Zn1   S    
C17   H16   S    
C37   H67   S    
O16   Zn10  S    
C91   O41   A    
C8    H1    S    
C25   O50   S    
C84   O8    A    
C28   O51   S    
C49   H102  S    
C73   O16   A    
C72   C94   S    
C42   H82   S    
C29   H46   S    
C21   C22   S    
C40   H76   S    
C19   H23   S    
C38   H70   S    
C48   H99   S    
C50   H104  S    
C128  O52   S    
O37   Zn2   S    
O31   Zn12  S    
C5    C101  S    
C16   H14   S    
C77   O25   A    
C4    C113  S    
O10   Zn6   S    
C28   H43   S    
C7    C123  S    
C123  C126  S    
C23   H32   S    
C92   O45   A    
C83   C131  S    
C32   H53   S    
C81   C129  S    
C25   H35   S    
C77   O24   A    
C36   H62   S    
C94   C96   T    
C128  C144  S    
C112  C125  S    
O20   Zn8   S    
C69   C88   S    
C58   C79   S    
C26   H38   S    
C68   O3    A    
C21   H29   S    
C55   C57   S    
O5    Zn1   S    
C80   O29   A    
C29   H45   S    
C7    C53   S    
C28   C29   S    
C72   O15   A    
O42   Zn4   S    
O13   Zn7   S    
O14   Zn8   S    
C44   C101  S    
C95   C97   T    
C42   C117  S    
C47   C123  S    
C39   H71   S    
C5    C46   S    
C59   C63   S    
C101  C122  S    
C48   C138  S    
C40   H77   S    
C60   C64   S    
C10   H50   S    
C31   H51   S    
C113  C124  S    
C43   H87   S    
C117  C128  S    
C45   H93   S    
C23   H33   S    
O45   Zn12  S    
C61   C65   S    
C42   H84   S    
C22   C23   S    
C81   O5    A    
O28   Zn9   S    
O19   Zn9   S    
C36   H63   S    
C109  C120  S    
C4    C109  S    
C82   O10   A    
C79   O4    A    
C12   H8    S    
C3    C141  S    
C45   H92   S    
C78   O28   A    
C97   C98   S    
C43   H86   S    
C21   O49   S    
C110  C121  S    
C1    O1    A    
C30   H49   S    
C5    C110  S    
C65   C70   T    
C27   H41   S    
C13   C144  S    
C92   C118  S    
C87   O36   A    
C6    C114  S    
C139  C143  S    
C51   H6    S    
C34   H60   S    
C85   O31   A    
C114  C140  S    
O18   Zn8   S    
C9    C10   S    
C107  C118  T    
C41   H78   S    
C14   H10   S    
C111  C122  S    
C3    C24   S    
C122  C143  S    
C54   C59   T    
C51   C141  S    
C37   C111  S    
C62   C66   S    
C93   O54   A    
C48   H98   S    
O1    Zn1   S    
C25   C26   S    
C56   C68   S    
C84   C132  S    
C129  C134  T    
C109  C138  S    
O24   Zn11  S    
C90   C120  S    
C7    C116  S    
O9    Zn6   S    
O33   Zn3   S    
C29   C30   S    
C123  C127  S    
C31   C32   S    
C103  C105  T    
C64   C69   T    
O4    Zn7   S    
C47   H95   S    
C49   C139  S    
C36   C110  S    
C52   C136  T    
C20   H24   S    
C70   C89   S    
C86   C102  S    
O34   Zn5   S    
O35   Zn4   S    
C50   H4    S    
C18   O48   S    
C113  C138  S    
C39   H73   S    
O55   Zn4   S    
C72   O14   A    
O12   Zn1   S    
C38   H68   S    
C44   H89   S    
C10   H72   S    
C34   H58   S    
C37   H66   S    
C41   H80   S    
C31   O52   S    
C127  O51   S    
C11   H83   S    
C93   C119  S    
C124  O48   S    
O15   Zn9   S    
C49   H101  S    
C58   C62   T    
C92   O53   A    
C48   H100  S    
C35   C133  T    
C104  C106  T    
C3    C126  S    
C11   H94   S    
C26   C27   S    
C115  C126  S    
C80   C104  S    
C110  C139  S    
C77   C137  S    
C28   H44   S    
O7    Zn5   S    
C75   C135  S    
C40   C115  S    
O21   Zn9   S    
C18   C19   S    
C32   H54   S    
C17   H19   S    
C46   C135  T    
C18   H20   S    
C16   C17   S    
C116  C127  S    
C76   O22   A    
C1    O56   A    
C83   O11   A    
C6    C117  S    
C140  C144  S    
C20   H25   S    
C4    C35   S    
C51   H7    S    
C55   C60   T    
C80   O30   A    
C108  C119  T    
C81   O9    A    
C18   H21   S    
C22   H31   S    
C4    C90   S    
C75   O20   A    
C25   H36   S    
C43   C90   S    
C68   O23   A    
C138  C142  S    
C88   O39   A    
C38   C113  S    
C33   H56   S    
C21   H27   S    
O54   Zn3   S    
C101  C121  S    
C83   O7    A    
O17   Zn11  S    
C9    H39   S    
C134  C142  S    
C125  O49   S    
C24   C132  T    
C66   C71   T    
C13   C131  T    
C76   O26   A    
C49   H103  S    
C73   O17   A    
C98   C100  T    
C40   H75   S    
O43   Zn3   S    
C84   O13   A    
C117  C140  S    
C120  O44   S    
C38   H69   S    
C90   C124  S    
C45   H91   S    
C43   H85   S    
C32   C33   S    
O29   Zn10  S    
O53   Zn2   S    
C2    C130  T    
C112  C128  S    
C116  C141  S    
C26   H37   S    
C99   C102  T    
C71   C91   S    
C51   H5    S    
C89   O40   A    
C56   C61   T    
C82   O6    A    
C9    H28   S    
C6    C112  S    
C57   O2    A    
C88   O37   A    
O27   Zn8   S    
C14   H11   S    
C121  C143  S    
C87   O38   A    
C76   C136  S    
C45   C112  S    
O41   Zn4   S    
C15   O47   S    
O23   Zn5   S    
C15   H13   S    
C8    H17   S    
C36   H64   S    
C31   H52   S    
C3    C127  S    
C7    C115  S    
C15   C16   S    
C74   C133  S    
C12   H2    S    
C27   H40   S    
C23   H34   S    
O11   Zn7   S    
O8    Zn5   S    
C8    C9    S    
C86   O35   A    
C19   H22   S    
C82   C130  S    
O25   Zn10  S    
O38   Zn2   S    
C79   O34   A    
C16   H15   S    
C2    C143  S    
C124  C142  S    
C78   O27   A    
C22   H30   S    
C74   O21   A    
O36   Zn12  S    
O32   Zn2   S    
O22   Zn10  S    
C105  C108  S    
C63   C67   T    
C120  C142  S    
O30   Zn11  S    
C47   H97   S    
C114  C125  S    
C5    C111  S    
C27   H42   S    
O39   Zn12  S    
C1    C54   S    
O40   Zn3   S    
C44   H90   S    
C89   O42   A    
C34   H59   S    
C39   C114  S    
C85   O32   A    
C30   H47   S    
C37   H65   S    
C15   H12   S    
C41   H79   S    
C12   C14   S    
C30   H48   S    
C14   H9    S    
C41   C116  S    
C8    O44   S    
C42   H81   S    
O3    Zn7   S    
C78   C103  S    
C93   O55   A    
C11   C12   S    
C126  O50   S    
C57   O12   A    
C67   C87   S    
C44   H88   S    
C85   C100  S    
C74   O18   A    
C33   H57   S    
C86   O33   A    
C17   H18   S    
C47   H96   S    
O26   Zn11  S    
O2    Zn6   S    
C34   C109  S    
C73   C95   S    
C122  O47   S    
