data_mof_unit_pretest_1815.cif
_audit_creation_date              2012-12-10T18:30:15-0500
_audit_creation_method            fapswitch 2.2
_symmetry_space_group_name_H-M    P1
_symmetry_Int_Tables_number       1
_space_group_crystal_system       triclinic
_cell_length_a                    21.325905
_cell_length_b                    24.967128
_cell_length_c                    24.903435
_cell_angle_alpha                 100.492089
_cell_angle_beta                  115.225137
_cell_angle_gamma                 64.69198
_cell_volume                      10844.0253177

loop_
_atom_site_label
_atom_site_type_symbol
_atom_type_description
_atom_site_fract_x
_atom_site_fract_y
_atom_site_fract_z
_atom_type_partial_charge
C1    C     C_R   0.999952 0.918810 0.418714 0.912707
C2    C     C_3   0.080649 0.696082 0.255106 -0.393442
C3    C     C_3   0.999354 0.709312 0.208339 0.358962
C4    C     C_R   0.878154 0.999821 0.499905 0.865015
C5    C     C_3   0.949584 0.711502 0.240023 -0.392781
C6    C     C_3   0.949672 0.760007 0.288620 -0.396145
C7    C     C_1   0.999358 0.663565 0.162649 -0.124587
C8    C     C_1   0.999629 0.837052 0.336413 -0.125356
C9    C     C_1   0.999791 0.874449 0.374077 -0.192365
C10   C     C_3   0.189333 0.041900 0.461835 -0.157921
C11   C     C_3   0.248918 0.988241 0.444731 -0.183799
C12   C     C_3   0.758469 0.997956 0.556334 -0.164332
C13   C     C_3   0.310432 0.000451 0.499794 -0.018324
C14   C     C_3   0.251884 0.054064 0.516958 -0.185210
C15   C     C_3   0.250405 0.012478 0.555165 -0.197952
C16   C     C_R   0.000041 0.081179 0.581265 0.912698
C17   C     C_3   0.309138 0.959425 0.537302 0.061739
C18   C     C_3   0.247441 0.946460 0.482751 -0.196345
C19   C     C_3   0.189103 0.000231 0.499937 0.010280
C20   C     C_3   0.954901 0.208338 0.743325 -0.398152
C21   C     C_3   0.966723 0.270155 0.681494 -0.396473
C22   C     C_3   0.966984 0.318462 0.730240 -0.426651
C23   C     C_3   0.761546 0.047469 0.529422 -0.154059
C24   C     C_1   0.000274 0.374409 0.874526 -0.172326
C25   C     C_3   0.001406 0.208263 0.709548 0.337726
C26   C     C_3   0.954348 0.257138 0.791570 -0.388468
C27   C     C_3   0.002060 0.290096 0.792234 0.303741
C28   C     C_R   0.121813 0.000068 0.499991 0.876273
C29   C     C_3   0.084369 0.244834 0.803234 -0.119992
C30   C     C_3   0.083364 0.196040 0.754464 -0.425153
C31   C     C_1   0.000917 0.336542 0.837376 -0.110242
C32   C     C_1   0.000746 0.162875 0.663533 -0.112487
C33   C     C_1   0.000345 0.125531 0.625852 -0.193325
C34   C     C_3   0.810826 0.999538 0.499916 0.027096
C35   C     C_R   0.418801 0.081188 0.418751 0.911672
C36   C     C_R   0.622061 0.999768 0.500107 0.863819
C37   C     C_R   0.581149 0.918744 0.581307 0.918567
C38   C     C_R   0.377885 0.000333 0.499751 0.878880
C39   C     C_R   0.080984 0.418958 0.080939 0.907445
C40   C     C_3   0.742017 0.001005 0.443595 -0.165667
C41   C     C_R   0.999771 0.581258 0.080904 0.907172
C42   C     C_R   0.918811 0.581209 0.918843 0.899175
C43   C     C_R   0.999883 0.419103 0.918761 0.911031
C44   C     C_3   0.229472 0.259949 0.308518 -0.393655
C45   C     C_3   0.080733 0.744586 0.303697 -0.393961
C46   C     C_3   0.251973 0.182624 0.230836 -0.393160
C47   C     C_3   0.203392 0.231195 0.182280 -0.390614
C48   C     C_1   0.125454 0.374386 0.125400 -0.180533
C49   C     C_3   0.290975 0.208822 0.290810 0.360007
C50   C     C_3   0.180895 0.308518 0.259968 -0.395163
C51   C     C_3   0.208734 0.291044 0.208616 0.356052
C52   C     C_3   0.691432 0.048974 0.473135 -0.154889
C53   C     C_3   0.292410 0.282935 0.234060 -0.391076
C54   C     C_3   0.340989 0.234367 0.282613 -0.396309
C55   C     C_1   0.162985 0.336804 0.162901 -0.122090
C56   C     C_3   0.967978 0.819289 0.228963 -0.392566
C57   C     C_1   0.336728 0.163097 0.336557 -0.125230
C58   C     C_1   0.374281 0.125606 0.374145 -0.192515
C59   C     C_3   0.702777 0.816949 0.768605 -0.467645
C60   C     C_3   0.791570 0.765691 0.716532 -0.483636
C61   C     C_3   0.841534 0.717180 0.765588 0.385990
C62   C     C_1   0.874367 0.625498 0.874321 -0.163286
C63   C     C_3   0.707941 0.790772 0.708534 0.199065
C64   C     C_3   0.689627 0.999499 0.500018 0.027278
C65   C     C_3   0.749806 0.768188 0.817320 0.337124
C66   C     C_3   0.790932 0.708477 0.790789 0.092986
C67   C     C_3   0.967893 0.770771 0.180355 -0.394328
C68   C     C_3   0.728908 0.690451 0.739228 0.204601
C69   C     C_3   0.679470 0.739868 0.690157 -0.533398
C70   C     C_1   0.836739 0.662836 0.836714 0.049932
C71   C     C_1   0.662472 0.836790 0.663187 -0.023133
C72   C     C_1   0.625253 0.874380 0.625798 -0.191583
C73   C     C_3   0.738981 0.951546 0.470473 -0.173789
C74   C     C_3   0.808971 0.950041 0.526832 -0.172994
C75   C     C_1   0.376387 0.914530 0.578424 0.128184
C76   C     C_1   0.124399 0.217947 0.862993 0.152046
C77   C     C_3   0.771933 0.817973 0.908024 0.105545
C78   C     C_1   0.999505 0.625920 0.125237 -0.183180
C79   C     C_3   0.828436 0.839942 0.957090 -0.806771
C80   C     C_3   0.962983 0.714825 0.799995 0.089286
C81   C     C_3   0.017319 0.740393 0.846511 -0.789121
C82   C     C_3   0.769154 0.620363 0.667900 0.142555
C83   C     C_3   0.826081 0.557489 0.667592 -0.860134
C84   C     C_3   0.999495 0.791424 0.290596 0.360591
H1    H     H_    0.641517 0.089283 0.451233 0.124716
H2    H     H_    0.890755 0.721012 0.207276 0.166625
H3    H     H_    0.249906 0.978574 0.399718 0.145352
H4    H     H_    0.737201 0.002228 0.397612 0.135007
H5    H     H_    0.138428 0.075871 0.430759 0.145757
H6    H     H_    0.255231 0.097956 0.530691 0.146837
H7    H     H_    0.249401 0.021975 0.600184 0.136133
H8    H     H_    0.244022 0.902567 0.469183 0.133866
H9    H     H_    0.895214 0.289048 0.782441 0.169966
H10   H     H_    0.895954 0.216191 0.711796 0.167069
H11   H     H_    0.999426 0.271164 0.657070 0.167848
H12   H     H_    0.002924 0.842154 0.229247 0.166491
H13   H     H_    0.907829 0.279741 0.648845 0.171889
H14   H     H_    0.908184 0.351228 0.720943 0.179015
H15   H     H_    0.728222 0.912304 0.446424 0.143883
H16   H     H_    0.999605 0.342813 0.729090 0.167890
H17   H     H_    0.109273 0.151070 0.774030 0.174050
H18   H     H_    0.117761 0.195603 0.730912 0.154794
H19   H     H_    0.979416 0.164390 0.764443 0.171593
H20   H     H_    0.976763 0.236941 0.835684 0.177026
H21   H     H_    0.116658 0.268699 0.800499 0.122459
H22   H     H_    0.120791 0.314577 0.242777 0.167132
H23   H     H_    0.002798 0.770333 0.157293 0.167979
H24   H     H_    0.192699 0.242681 0.314646 0.164609
H25   H     H_    0.295084 0.145748 0.217116 0.168415
H26   H     H_    0.858596 0.909577 0.548726 0.143493
H27   H     H_    0.215601 0.163980 0.235582 0.165880
H28   H     H_    0.143689 0.235877 0.163706 0.167820
H29   H     H_    0.223170 0.217646 0.145240 0.170941
H30   H     H_    0.369650 0.253521 0.325184 0.165721
H31   H     H_    0.385685 0.198409 0.269816 0.165880
H32   H     H_    0.297741 0.325416 0.253314 0.165807
H33   H     H_    0.256143 0.279562 0.351549 0.166487
H34   H     H_    0.909393 0.781323 0.146541 0.165623
H35   H     H_    0.184237 0.351455 0.279681 0.164716
H36   H     H_    0.313774 0.270304 0.197943 0.168894
H37   H     H_    0.763285 0.996690 0.602309 0.134756
H38   H     H_    0.723295 0.853473 0.782054 0.210175
H39   H     H_    0.796965 0.746656 0.673944 0.125600
H40   H     H_    0.811639 0.802407 0.728254 0.204515
H41   H     H_    0.867941 0.674117 0.745740 0.048087
H42   H     H_    0.619901 0.757805 0.685845 0.178658
H43   H     H_    0.677221 0.724452 0.645050 0.174709
H44   H     H_    0.689935 0.691247 0.758415 0.119375
H45   H     H_    0.971241 0.739561 0.332478 0.165754
H46   H     H_    0.642927 0.836585 0.763762 0.142198
H47   H     H_    0.710193 0.760930 0.830760 0.006375
H48   H     H_    0.772767 0.086553 0.553460 0.124259
H49   H     H_    0.117563 0.694320 0.233379 0.167866
H50   H     H_    0.117685 0.766124 0.305308 0.165358
H51   H     H_    0.909514 0.853142 0.218504 0.166146
H52   H     H_    0.759729 0.789397 0.928460 0.127967
H53   H     H_    0.719233 0.857065 0.886643 0.125456
H54   H     H_    0.841453 0.868955 0.938109 0.256975
H55   H     H_    0.804559 0.865604 0.990133 0.193157
H56   H     H_    0.890884 0.792812 0.279222 0.164558
H57   H     H_    0.881317 0.801742 0.979762 0.257353
H58   H     H_    0.949277 0.729987 0.755458 0.119064
H59   H     H_    0.991392 0.665620 0.802341 0.133588
H60   H     H_    0.032826 0.725349 0.891441 0.260555
H61   H     H_    0.069246 0.725274 0.837812 0.193079
H62   H     H_    0.990584 0.789563 0.844907 0.253407
H63   H     H_    0.790895 0.650812 0.661471 0.116381
H64   H     H_    0.714895 0.624812 0.630165 0.148480
H65   H     H_    0.805735 0.525189 0.672503 0.262108
H66   H     H_    0.833955 0.548800 0.625072 0.201883
H67   H     H_    0.971104 0.667761 0.260541 0.165263
H68   H     H_    0.881146 0.551560 0.704832 0.250282
H69   H     H_    0.104642 0.723866 0.347825 0.166916
H70   H     H_    0.104521 0.652066 0.275900 0.164862
N1    N     N_1   0.429499 0.879165 0.610821 -0.222766
N2    N     N_1   0.155708 0.196929 0.909789 -0.218592
O1    O     O_R   0.034680 0.903860 0.473250 -0.619749
O2    O     O_R   0.008840 0.438630 0.061310 -0.619245
O3    O     O_R   0.052380 0.561560 0.061290 -0.617559
O4    O     O_R   0.965310 0.973280 0.403900 -0.620155
O5    O     O_R   0.947370 0.561540 0.061320 -0.620295
O6    O     O_R   0.990910 0.561610 0.938440 -0.614345
O7    O     O_R   0.885900 0.561600 0.938470 -0.618979
O8    O     O_R   0.052380 0.438700 0.938430 -0.618890
O9    O     O_R   0.947370 0.438690 0.938460 -0.616559
O10   O     O_R   0.941660 0.965300 0.534680 -0.629640
O11   O     O_R   0.872290 0.034710 0.465330 -0.627292
O12   O     O_R   0.438620 0.026720 0.403950 -0.620073
O13   O     O_R   0.034690 0.026720 0.596100 -0.617959
O14   O     O_R   0.965320 0.096140 0.526750 -0.619876
O15   O     O_R   0.127710 0.965290 0.534670 -0.624791
O16   O     O_R   0.058340 0.034700 0.465320 -0.631060
O17   O     O_R   0.438600 0.096100 0.473280 -0.620868
O18   O     O_3   0.803273 0.785236 0.866569 -0.530370
O19   O     O_3   0.897541 0.734143 0.811943 -0.537815
O20   O     O_3   0.758942 0.629996 0.721811 -0.594454
O21   O     O_R   0.593070 0.034630 0.534720 -0.627156
O22   O     O_R   0.593090 0.965250 0.465380 -0.630942
O23   O     O_R   0.561490 0.973170 0.596160 -0.618231
O24   O     O_R   0.561500 0.903790 0.526820 -0.618502
O25   O     O_R   0.407020 0.034640 0.534730 -0.627479
O26   O     O_R   0.407040 0.965260 0.465390 -0.626547
O27   O     O_R   0.113850 0.438650 0.061280 -0.618135
Zn1   Zn    Zn3+2 0.046320 0.953650 0.546300 0.946060
Zn2   Zn    Zn3+2 0.953680 0.046350 0.453700 0.939992
Zn3   Zn    Zn3+2 0.500040 0.046270 0.546350 0.945754
Zn4   Zn    Zn3+2 0.500070 0.953620 0.453760 0.943551
Zn5   Zn    Zn3+2 0.069990 0.500130 0.999860 0.956620
Zn6   Zn    Zn3+2 0.929760 0.500110 0.999900 0.954586

loop_
_geom_bond_atom_site_label_1
_geom_bond_atom_site_label_2
_ccdc_geom_bond_type
C44   C49   S    
C48   C55   T    
C66   C68   S    
C11   C18   S    
C77   O18   S    
C22   H14   S    
C12   C74   S    
C65   O18   S    
C27   C29   S    
C73   C74   S    
C79   H55   S    
C61   O19   S    
C82   H63   S    
C68   O20   S    
C53   H36   S    
C59   H46   S    
O23   Zn3   S    
C66   C70   S    
C53   C54   S    
C15   C19   S    
C12   C23   S    
C45   H50   S    
C38   O25   A    
C1    O4    A    
C60   C63   S    
C34   C40   S    
C52   H1    S    
C77   H53   S    
C3    C7    S    
C5    C6    S    
C12   C64   S    
C20   C25   S    
C47   H28   S    
O11   Zn2   S    
C73   H15   S    
C49   C57   S    
C40   C73   S    
C62   C70   T    
C47   H29   S    
C18   C19   S    
C60   H40   S    
C14   H6    S    
C21   C25   S    
C28   O15   A    
C26   H20   S    
C41   O3    A    
C61   C66   S    
C28   O16   A    
C81   H60   S    
C12   H37   S    
C63   C69   S    
C10   H5    S    
C11   H3    S    
C8    C9    T    
O9    Zn6   S    
C64   C73   S    
C77   H52   S    
C42   C62   S    
C81   H62   S    
C53   H32   S    
C83   H66   S    
C43   O8    A    
C80   H59   S    
C59   H38   S    
C43   O9    A    
C2    H70   S    
O12   Zn4   S    
C13   C14   S    
C29   H21   S    
O4    Zn2   S    
C6    H45   S    
C16   O13   A    
C65   H47   S    
C56   C84   S    
C57   C58   T    
C44   H24   S    
C2    C45   S    
C37   O23   A    
C4    C34   S    
O17   Zn3   S    
C2    H49   S    
C6    C84   S    
C27   C31   S    
C50   H35   S    
C35   O17   A    
O15   Zn1   S    
C22   H16   S    
O5    Zn6   S    
C52   C64   S    
O2    Zn6   S    
C41   C78   S    
C29   C76   S    
C42   O7    A    
C68   C69   S    
C47   C51   S    
C21   H11   S    
C50   C51   S    
C40   C52   S    
C76   N2    T    
O21   Zn3   S    
C60   C61   S    
C51   C53   S    
O3    Zn5   S    
C60   H39   S    
C36   O22   A    
C29   C30   S    
O24   Zn4   S    
C16   O14   A    
C16   C33   S    
C21   H13   S    
O13   Zn1   S    
C46   C49   S    
C10   C19   S    
C23   C34   S    
C46   H27   S    
C54   H31   S    
C30   H18   S    
C17   C18   S    
C26   C27   S    
C77   C79   S    
C1    C9    S    
O7    Zn6   S    
C56   H12   S    
C81   H61   S    
C19   C28   S    
C13   C38   S    
C41   O5    A    
C34   C74   S    
C7    C78   T    
O22   Zn4   S    
O1    Zn1   S    
C82   O20   S    
C69   H42   S    
C65   C66   S    
C80   H58   S    
C22   C27   S    
C35   C58   S    
C39   O2    A    
C10   C14   S    
C68   H44   S    
C46   H25   S    
C45   C84   S    
C45   H69   S    
C5    H2    S    
C3    C5    S    
C56   H51   S    
C35   O12   A    
C83   H68   S    
C44   C50   S    
C25   C30   S    
C15   C17   S    
C37   O24   A    
C20   H10   S    
C46   C47   S    
O16   Zn2   S    
C8    C84   S    
O10   Zn1   S    
C3    C67   S    
C36   O21   A    
C80   O19   S    
C63   C71   S    
C80   C81   S    
O8    Zn5   S    
C5    H67   S    
C74   H26   S    
C82   H64   S    
O25   Zn3   S    
C42   O6    A    
C20   H19   S    
C56   C67   S    
C59   C63   S    
C38   O26   A    
C4    O11   A    
C13   C17   S    
C18   H8    S    
C32   C33   T    
C40   H4    S    
C1    O1    A    
C2    C3    S    
C24   C31   T    
C71   C72   T    
C36   C64   S    
O27   Zn5   S    
C59   C65   S    
O6    Zn5   S    
C11   C13   S    
C67   H23   S    
C23   C52   S    
C79   H57   S    
C20   C26   S    
C44   H33   S    
C25   C32   S    
C54   H30   S    
O14   Zn2   S    
C30   H17   S    
C23   H48   S    
C4    O10   A    
C51   C55   S    
O26   Zn4   S    
C6    H56   S    
C67   H34   S    
C26   H9    S    
C10   C11   S    
C15   H7    S    
C75   N1    T    
C79   H54   S    
C69   H43   S    
C82   C83   S    
C37   C72   S    
C50   H22   S    
C24   C43   S    
C14   C15   S    
C61   H41   S    
C21   C22   S    
C39   O27   A    
C49   C54   S    
C17   C75   S    
C39   C48   S    
C83   H65   S    
