data_mof_unit_pretest_1092.cif
_audit_creation_date              2013-03-05T15:54:13-0500
_audit_creation_method            fapswitch 2.2
_symmetry_space_group_name_H-M    P1
_symmetry_Int_Tables_number       1
_space_group_crystal_system       triclinic
_cell_length_a                    10.517063
_cell_length_b                    10.737524
_cell_length_c                    9.897637
_cell_angle_alpha                 88.1132
_cell_angle_beta                  89.764054
_cell_angle_gamma                 91.619251
_cell_volume                      1116.64625948

loop_
_atom_site_label
_atom_site_type_symbol
_atom_site_description
_atom_site_fract_x
_atom_site_fract_y
_atom_site_fract_z
_atom_type_partial_charge
O1    O     O_R   0.500000 0.316780 0.614690 -0.658655
O2    O     O_R   0.499990 0.316750 0.385360 -0.648772
C1    C     C_R   0.505809 0.259559 0.503129 0.885087
O3    O     O_R   0.313960 0.499980 0.614650 -0.658855
O4    O     O_R   0.313940 0.499960 0.385310 -0.610043
C2    C     C_R   0.257509 0.500815 0.500320 0.902714
Zn1   Zn    Zn3+2 0.500010 0.500020 0.653130 0.928629
Zn2   Zn    Zn3+2 0.499990 0.499980 0.346870 0.998208
O5    O     O_R   0.500010 0.683250 0.614640 -0.635597
O6    O     O_R   0.500000 0.683220 0.385310 -0.544394
O7    O     O_R   0.686060 0.500040 0.614690 -0.622645
O8    O     O_R   0.686040 0.500020 0.385350 -0.627613
C3    C     C_R   0.487088 0.738995 0.497512 0.930989
C4    C     C_R   0.742448 0.499577 0.499686 0.897294
C5    C     C_3   0.039561 0.493860 0.629128 -0.192563
C6    C     C_3   0.955084 0.394271 0.560572 -0.142577
H1    H     H_    0.914119 0.307564 0.609529 0.146314
H2    H     H_    0.075607 0.487593 0.734388 0.172111
C7    C     C_3   0.877189 0.499924 0.498872 -0.024097
C8    C     C_3   0.958395 0.599618 0.567766 -0.237646
C9    C     C_3   0.042326 0.605073 0.440999 0.347559
C10   C     C_3   0.959272 0.508093 0.370348 -0.187484
C11   C     C_3   0.040312 0.402664 0.432576 -0.225811
C12   C     C_3   0.122649 0.502128 0.501070 -0.076692
H3    H     H_    0.921311 0.680495 0.621181 0.161308
H4    H     H_    0.923779 0.515445 0.264935 0.167043
H5    H     H_    0.077730 0.322527 0.378132 0.153633
H6    H     H_    0.545595 0.122356 0.293951 0.203183
C13   C     C_R   0.483381 0.098050 0.762089 -0.179402
H7    H     H_    0.535825 0.181800 0.786755 0.179101
C14   C     C_R   0.428378 0.029830 0.870801 -0.093007
H8    H     H_    0.433309 0.065525 0.971756 0.185053
C15   C     C_R   0.364869 0.917229 0.848931 -0.107830
H9    H     H_    0.316982 0.866704 0.931695 0.192917
C16   C     C_R   0.368200 0.866873 0.721255 -0.122819
H10   H     H_    0.319334 0.778086 0.707607 0.165898
C17   C     C_R   0.434886 0.929860 0.613422 0.060647
C18   C     C_R   0.476070 0.053567 0.628724 0.087576
C19   C     C_R   0.508244 0.125250 0.509483 -0.176900
C20   C     C_R   0.521480 0.068454 0.385543 -0.283030
C21   C     C_R   0.501724 0.942523 0.375276 0.335664
C22   C     C_R   0.465924 0.871332 0.492308 -0.200537
H11   H     H_    0.646532 0.636207 0.119947 0.178829
C23   C     C_R   0.328082 0.341086 0.145841 -0.147887
H12   H     H_    0.323658 0.332759 0.253076 0.198350
C24   C     C_R   0.241729 0.265326 0.078148 -0.191542
H13   H     H_    0.175462 0.204551 0.134758 0.170431
C25   C     C_R   0.241623 0.266133 0.938318 -0.198371
H14   H     H_    0.175774 0.205540 0.885839 0.165988
C26   C     C_R   0.328567 0.341964 0.865472 -0.180519
H15   H     H_    0.327031 0.333081 0.758714 0.211861
C27   C     C_R   0.415330 0.422082 0.930560 0.149440
C28   C     C_R   0.415252 0.421942 0.075240 0.174953
N1    N     N_R   0.498800 0.498800 0.142780 -0.124873
C29   C     C_R   0.580686 0.574966 0.068515 -0.045197
H16   H     H_    0.646438 0.636240 0.868927 0.162023
C30   C     C_R   0.580633 0.574953 0.925299 -0.099106
N2    N     N_R   0.498760 0.498720 0.857170 -0.132245
N3    N     N_R   0.515152 0.890124 0.244438 0.209218
O9    O     O_R   0.417618 0.834993 0.189180 -0.357673
O10   O     O_R   0.614191 0.920249 0.169770 -0.419830
N4    N     N_R   0.087612 0.721786 0.375918 0.199558
O11   O     O_R   0.006104 0.799817 0.326707 -0.380696
O12   O     O_R   0.208215 0.751222 0.371441 -0.386671

loop_
_geom_bond_atom_site_label_1
_geom_bond_atom_site_label_2
_geom_bond_distance
_ccdc_geom_bond_type
C13   C18   1.420105 A    
C5    H2    1.110726 S    
C26   C27   1.408792 A    
C11   C12   1.533071 S    
C14   C15   1.388378 A    
C28   N1    1.378476 A    
N4    O11   1.300486 A    
C11   H5    1.110668 S    
O4    Zn2   1.991799 S    
C21   C22   1.410564 A    
Zn1   N2    2.019089 S    
C14   H8    1.082844 S    
Zn2   O8    1.994951 S    
C2    C12   1.418787 S    
C8    C9    1.529703 S    
C7    C8    1.530185 S    
C25   C26   1.390247 A    
C15   H9    1.082086 S    
C9    N4    1.457012 S    
C1    C19   1.442404 S    
N3    O9    1.301306 A    
C13   C14   1.395700 A    
C5    C12   1.535272 S    
C9    C10   1.529011 S    
C23   H12   1.062912 S    
Zn1   O7    1.991800 S    
C30   N2    1.366552 A    
C13   H7    1.077055 S    
C27   N2    1.374508 A    
O3    Zn1   1.994951 S    
C25   H14   1.082803 S    
C4    C7    1.416968 S    
H11   C29   1.081811 S    
C3    C22   1.443775 S    
C16   C17   1.417001 A    
C17   C18   1.398647 A    
O8    C4    1.279822 A    
C26   H15   1.064217 S    
C6    C11   1.547594 S    
O2    C1    1.301972 A    
C29   C30   1.417509 A    
C6    C7    1.530390 S    
O4    C2    1.282009 A    
O7    C4    1.281540 A    
C24   C25   1.383734 A    
N3    O10   1.301765 A    
C6    H1    1.110455 S    
H16   C30   1.081778 S    
H6    C20   1.084617 S    
C10   H4    1.110667 S    
C5    C6    1.546707 S    
C19   C20   1.395982 A    
C7    C10   1.533120 S    
C18   C19   1.421968 A    
C27   C28   1.431942 A    
C21   N3    1.436812 S    
O3    C2    1.279933 A    
C8    H3    1.110597 S    
C9    C12   1.517434 S    
Zn2   N1    2.020553 S    
C17   C22   1.412964 A    
Zn1   O5    1.991627 S    
O5    C3    1.296501 A    
N1    C29   1.366092 A    
C20   C21   1.369404 A    
O1    Zn1   2.016251 S    
N4    O12   1.298701 A    
C15   C16   1.391472 A    
C24   H13   1.082825 S    
C23   C28   1.411493 A    
Zn2   O6    2.016252 S    
O2    Zn2   1.991627 S    
C10   C11   1.549279 S    
C16   H10   1.082870 S    
C23   C24   1.390896 A    
C5    C8    1.549430 S    
O1    C1    1.283242 A    
O6    C3    1.287453 A    
