data_mof_unit_pretest_705.cif
_audit_creation_date              2012-12-11T17:47:24-0500
_audit_creation_method            fapswitch 2.2
_symmetry_space_group_name_H-M    P1
_symmetry_Int_Tables_number       1
_space_group_crystal_system       triclinic
_cell_length_a                    14.900758
_cell_length_b                    15.017463
_cell_length_c                    15.069876
_cell_angle_alpha                 111.042738
_cell_angle_beta                  108.617913
_cell_angle_gamma                 108.569998
_cell_volume                      2600.57778405

loop_
_atom_site_label
_atom_site_type_symbol
_atom_type_description
_atom_site_fract_x
_atom_site_fract_y
_atom_site_fract_z
_atom_type_partial_charge
C1    C     C_R   0.970366 0.244197 0.057806 -0.126505
C2    C     C_R   0.094611 0.804097 0.007834 -0.013766
C3    C     C_R   0.320337 0.769041 0.324465 0.101317
C4    C     C_R   0.682579 0.163290 0.676562 0.083649
C5    C     C_R   0.305058 0.498128 0.941424 0.095952
C6    C     C_R   0.676439 0.503668 0.959441 0.090674
C7    C     C_R   0.945958 0.504082 0.306894 0.101227
C8    C     C_R   0.050947 0.497024 0.691771 0.060123
C9    C     C_R   0.161220 0.030198 0.065274 -0.124422
C10   C     C_R   0.064871 0.135758 0.156884 -0.148848
C11   C     C_R   0.132831 0.041775 0.766809 -0.309941
C12   C     C_R   0.036353 0.983232 0.381493 -0.349672
C13   C     C_R   0.098013 0.037558 0.842027 0.562383
C14   C     C_R   0.086979 0.026836 0.331568 0.513849
C15   C     C_R   0.598054 0.349662 0.222502 -0.212528
C16   C     C_R   0.394381 0.601421 0.637528 -0.187203
C17   C     C_R   0.705279 0.418697 0.309011 0.582306
C18   C     C_R   0.280518 0.547459 0.586779 0.559756
C19   C     C_R   0.772755 0.372721 0.332643 -0.111159
C20   C     C_R   0.228301 0.592079 0.639221 -0.066059
C21   C     C_R   0.730084 0.258891 0.272833 -0.222432
C22   C     C_R   0.292810 0.686159 0.743661 -0.208249
C23   C     C_R   0.313425 0.749100 0.223685 -0.070353
C24   C     C_R   0.691480 0.209746 0.779469 -0.121277
C25   C     C_R   0.623166 0.191468 0.187859 -0.074305
C26   C     C_R   0.405982 0.738741 0.792989 -0.159808
C27   C     C_R   0.557577 0.236821 0.162175 -0.182118
C28   C     C_R   0.456658 0.697319 0.739308 -0.185300
C29   C     C_R   0.919408 0.434850 0.511580 -0.160266
C30   C     C_R   0.077397 0.568409 0.488343 -0.131546
C31   C     C_R   0.029396 0.492339 0.590816 0.083033
C32   C     C_R   0.967910 0.509198 0.408189 0.105368
C33   C     C_R   0.110551 0.554530 0.576603 0.070024
C34   C     C_R   0.888117 0.440324 0.418228 0.106457
C35   C     C_R   0.172002 0.111308 0.955105 -0.118192
C36   C     C_R   0.022133 0.020435 0.234995 -0.043396
C37   C     C_R   0.314005 0.181061 0.913546 -0.111192
C38   C     C_R   0.860229 0.930289 0.243405 -0.129121
C39   C     C_R   0.159255 0.872227 0.551059 -0.189139
C40   C     C_R   0.900641 0.062187 0.604475 -0.077297
C41   C     C_R   0.229834 0.894521 0.509483 -0.109946
C42   C     C_R   0.796638 0.014269 0.591436 -0.081458
C43   C     C_R   0.328564 0.894171 0.551933 0.080507
C44   C     C_R   0.708793 0.003201 0.508552 0.088624
C45   C     C_R   0.212872 0.407492 0.908228 -0.119925
C46   C     C_R   0.777120 0.594192 0.031557 -0.072797
C47   C     C_R   0.361699 0.887246 0.646499 -0.149105
C48   C     C_R   0.724378 0.032389 0.433758 -0.159539
C49   C     C_R   0.295249 0.875685 0.693733 -0.112227
C50   C     C_R   0.828597 0.079951 0.447057 -0.116464
C51   C     C_R   0.191659 0.861594 0.642578 -0.053886
C52   C     C_R   0.916912 0.096229 0.533324 -0.159001
C53   C     C_R   0.494069 0.029005 0.583738 -0.125907
C54   C     C_R   0.516530 0.876480 0.432961 -0.219139
C55   C     C_R   0.593141 0.057283 0.585210 0.037766
C56   C     C_R   0.416491 0.849734 0.430486 0.057082
C57   C     C_R   0.605939 0.978987 0.510842 0.014740
C58   C     C_R   0.409142 0.923742 0.515163 0.062903
C59   C     C_R   0.240493 0.112101 0.802347 -0.180232
C60   C     C_R   0.923520 0.931967 0.335600 -0.089136
C61   C     C_R   0.067455 0.048860 0.169100 0.097900
C62   C     C_R   0.143986 0.104410 0.038630 0.107329
C63   C     C_R   0.279501 0.183026 0.989624 -0.205060
C64   C     C_R   0.909313 0.975837 0.194164 -0.227667
C65   C     C_R   0.104883 0.986967 0.110960 0.107510
C66   C     C_R   0.089972 0.155297 0.081084 0.066528
C67   C     C_R   0.997202 0.592847 0.300368 -0.097515
C68   C     C_R   0.999290 0.407214 0.697701 -0.146550
C69   C     C_3   0.511910 0.445584 0.982946 -0.210674
C70   C     C_3   0.462697 0.560118 0.892713 -0.249835
C71   C     C_3   0.407717 0.397516 0.876057 -0.257860
C72   C     C_3   0.567801 0.607821 0.999186 -0.233087
C73   C     C_3   0.398118 0.498710 0.932566 0.064065
C74   C     C_3   0.577320 0.506366 0.942963 0.073654
C75   C     C_3   0.501551 0.546430 0.038228 0.296985
C76   C     C_3   0.474861 0.459089 0.836989 0.275979
C77   C     C_R   0.302319 0.590083 0.999199 -0.115758
C78   C     C_R   0.684862 0.410145 0.939069 -0.114145
C79   C     C_R   0.912509 0.411140 0.212763 -0.123820
C80   C     C_R   0.082758 0.589696 0.785777 -0.091087
C81   C     C_R   0.217139 0.733861 0.308943 -0.101484
C82   C     C_R   0.781392 0.221595 0.686190 -0.111377
C83   C     C_R   0.066661 0.249822 0.970206 -0.067842
C84   C     C_R   0.002699 0.804246 0.098365 -0.127094
C85   C     C_R   0.047046 0.216706 0.040269 0.105493
C86   C     C_R   0.067673 0.869998 0.074116 0.103496
H1    H     H_    0.933929 0.228964 0.105812 0.091667
H2    H     H_    0.153625 0.828358 0.982472 0.070172
H3    H     H_    0.077630 0.987798 0.680157 0.184357
H4    H     H_    0.084091 0.987656 0.455416 0.151084
H5    H     H_    0.398162 0.231819 0.940733 0.121958
H6    H     H_    0.772976 0.892688 0.209482 0.128797
H7    H     H_    0.475070 0.183919 0.095738 0.136910
H8    H     H_    0.544363 0.738761 0.777283 0.163263
H9    H     H_    0.545450 0.383227 0.202063 0.181258
H10   H     H_    0.435330 0.570177 0.597455 0.200732
H11   H     H_    0.780604 0.222601 0.290882 0.141851
H12   H     H_    0.256785 0.725052 0.784097 0.120834
H13   H     H_    0.591326 0.103982 0.141393 0.110300
H14   H     H_    0.454434 0.813093 0.872181 0.123558
H15   H     H_    0.857159 0.386908 0.523203 0.140142
H16   H     H_    0.139030 0.616925 0.476467 0.151372
H17   H     H_    0.379287 0.768641 0.205670 0.102023
H18   H     H_    0.635580 0.176389 0.804966 0.084016
H19   H     H_    0.337270 0.237843 0.075799 0.159969
H20   H     H_    0.858744 0.970707 0.120491 0.147530
H21   H     H_    0.138083 0.846195 0.676136 0.156476
H22   H     H_    0.997995 0.135566 0.545242 0.141067
H23   H     H_    0.079833 0.864200 0.513302 0.146690
H24   H     H_    0.969136 0.077214 0.672454 0.138125
H25   H     H_    0.204946 0.905880 0.440673 0.186849
H26   H     H_    0.785814 0.993601 0.650470 0.166892
H27   H     H_    0.441192 0.895773 0.686361 0.125786
H28   H     H_    0.657438 0.025059 0.369944 0.127736
H29   H     H_    0.324665 0.879391 0.770947 0.114825
H30   H     H_    0.841380 0.106792 0.392253 0.138971
H31   H     H_    0.484300 0.087503 0.642256 0.148375
H32   H     H_    0.523656 0.819327 0.370574 0.165311
H33   H     H_    0.203529 0.993789 0.032474 0.106489
H34   H     H_    0.033424 0.180717 0.199465 0.144803
H35   H     H_    0.339259 0.312735 0.822271 0.145239
H36   H     H_    0.634268 0.694037 0.049308 0.136799
H37   H     H_    0.537296 0.402764 0.024011 0.137960
H38   H     H_    0.436124 0.604670 0.855946 0.170202
H39   H     H_    0.185684 0.323314 0.851467 0.097912
H40   H     H_    0.797650 0.679249 0.068644 0.103796
H41   H     H_    0.025796 0.677317 0.356863 0.117114
H42   H     H_    0.967101 0.322402 0.638871 0.114831
H43   H     H_    0.357714 0.673609 0.027252 0.098462
H44   H     H_    0.619263 0.326832 0.892394 0.105982
H45   H     H_    0.864808 0.327214 0.189104 0.105434
H46   H     H_    0.118326 0.673712 0.805949 0.096931
H47   H     H_    0.191910 0.722351 0.364545 0.107402
H48   H     H_    0.806012 0.208950 0.625201 0.122727
H49   H     H_    0.122926 0.246683 0.941151 0.102367
H50   H     H_    0.976524 0.827401 0.157122 0.114436
H51   H     H_    0.267404 0.111612 0.743478 0.161089
H52   H     H_    0.885241 0.895478 0.373021 0.179590
N1    N     N_R   0.947560 0.293820 0.002910 -0.043357
N2    N     N_R   0.052440 0.706180 0.997090 -0.052418
N3    N     N_R   0.208960 0.706170 0.152110 -0.050027
N4    N     N_R   0.791040 0.293830 0.847890 -0.039877
N5    N     N_R   0.154330 0.443160 0.946140 -0.045356
N6    N     N_R   0.845670 0.556840 0.053860 -0.046523
N7    N     N_R   0.002190 0.556820 0.208880 -0.049534
N8    N     N_R   0.997810 0.443180 0.791120 -0.040788
N9    N     N_R   0.210550 0.556810 0.002910 -0.042810
N10   N     N_R   0.789450 0.443190 0.997090 -0.047469
N11   N     N_R   0.945970 0.443180 0.152110 -0.043702
N12   N     N_R   0.054030 0.556820 0.847890 -0.042948
N13   N     N_R   0.151530 0.706170 0.208880 -0.043721
N14   N     N_R   0.848470 0.293830 0.791120 -0.045563
N15   N     N_R   0.004980 0.293810 0.946140 -0.050798
N16   N     N_R   0.995020 0.706190 0.053860 -0.049946
Ni1   Ni    Ni4+2 0.869690 0.369690 0.000000 0.225779
Ni2   Ni    Ni4+2 0.130310 0.630310 0.000000 0.221912
Ni3   Ni    Ni4+2 0.001390 0.369680 0.869810 0.221517
Ni4   Ni    Ni4+2 0.998610 0.630320 0.130190 0.242001
S1    S     S_3+6 0.749289 0.560033 0.386100 -0.036550
O1    O     O_2   0.845309 0.614916 0.497245 -0.278973
O2    O     O_2   0.779423 0.613788 0.325236 -0.311652
O3    O     O_3   0.646705 0.574235 0.401042 -0.493306
H53   H     H_    0.674815 0.654242 0.441313 0.383496
S2    S     S_3+6 0.206881 0.427885 0.455781 -0.057983
O4    O     O_2   0.275766 0.375518 0.441226 -0.218560
O5    O     O_2   0.104837 0.347674 0.442099 -0.338108
O6    O     O_3   0.174622 0.462781 0.360524 -0.562867
H54   H     H_    0.131313 0.392731 0.289988 0.364814
S3    S     S_3+6 0.964486 0.936168 0.792391 -0.077882
O7    O     O_2   0.969823 0.859460 0.833481 -0.293485
O8    O     O_2   0.904141 0.989241 0.831933 -0.343090
O9    O     O_3   0.897413 0.863985 0.655199 -0.530040
H55   H     H_    0.822556 0.814340 0.634736 0.388113
S4    S     S_3+6 0.229393 0.081745 0.387704 -0.027400
O10   O     O_2   0.252399 0.994756 0.328899 -0.317734
O11   O     O_2   0.277635 0.177373 0.374628 -0.192910
O12   O     O_3   0.287907 0.122027 0.520867 -0.524391
H56   H     H_    0.257080 0.166214 0.552124 0.342761
I1    I     I_    0.526835 0.617219 0.200846 -0.407619
I2    I     I_    0.466491 0.396630 0.681600 -0.274430

loop_
_geom_bond_atom_site_label_1
_geom_bond_atom_site_label_2
_ccdc_geom_bond_type
C16   C28   A    
C39   C51   A    
C1    H1    S    
C80   H46   S    
S3    O8    D    
S3    O7    D    
C53   C55   A    
C3    C23   A    
C70   H38   S    
N6    N10   A    
C66   C85   S    
C65   C86   S    
C39   C41   A    
N8    Ni3   S    
C64   H20   S    
C80   N12   A    
S2    O5    D    
C74   C76   S    
C22   H12   S    
C48   H28   S    
S2    O4    D    
C19   C21   A    
C84   C86   A    
N16   Ni4   S    
C84   N16   A    
C15   H9    S    
C71   C76   S    
C4    C24   A    
C53   H31   S    
C6    C78   A    
N1    N15   A    
C51   H21   S    
C38   H6    S    
C18   C20   A    
C28   H8    S    
C2    C86   A    
N4    N14   A    
C69   C71   S    
C42   H26   S    
S4    O10   D    
C14   C36   A    
C21   C25   A    
C43   C58   S    
N8    N12   A    
C18   S2    S    
C25   H13   S    
C23   H17   S    
C45   H39   S    
C49   C51   A    
C67   N7    A    
C50   C52   A    
C31   C33   A    
C2    H2    S    
C8    C80   A    
N10   Ni1   S    
N4    Ni1   S    
C63   H19   S    
C75   I1    S    
C77   N9    A    
C83   H49   S    
C1    N1    A    
C78   N10   A    
C79   N11   A    
C36   C64   A    
C48   C50   A    
C69   H37   S    
N12   Ni2   S    
N15   Ni3   S    
C73   C75   S    
C42   C44   A    
C72   C75   S    
C11   C59   A    
C37   C63   A    
C46   H40   S    
N5    Ni3   S    
S4    O11   D    
N11   Ni1   S    
C10   C66   A    
C1    C85   A    
C54   C56   A    
C16   H10   S    
C70   C72   S    
C37   H5    S    
C9    C62   A    
N13   Ni4   S    
C47   C49   A    
C24   N4    A    
O6    H54   S    
C71   C73   S    
C62   C66   A    
C40   H24   S    
C40   C52   A    
C6    C74   S    
C5    C45   A    
C29   C34   A    
C24   H18   S    
C32   C34   A    
C82   H48   S    
N5    N9    A    
C3    C81   A    
C67   H41   S    
C21   H11   S    
C3    C56   S    
C11   H3    S    
C15   C27   A    
S1    O1    D    
N1    Ni1   S    
C44   C57   S    
C29   C31   A    
C79   H45   S    
C30   H16   S    
C70   C73   S    
S1    O2    D    
S1    O3    S    
C29   H15   S    
C69   C74   S    
C77   H43   S    
C81   H47   S    
N9    Ni2   S    
S4    O12   S    
C37   C59   A    
C22   C26   A    
N2    Ni2   S    
C38   C60   A    
C20   C33   S    
C72   C74   S    
C49   H29   S    
C12   C14   A    
C8    C68   A    
C55   C57   A    
C4    C55   S    
C70   C76   S    
C9    H33   S    
S3    O9    S    
C27   H7    S    
C10   C61   A    
C5    C77   A    
C36   C61   S    
C68   N8    A    
O9    H55   S    
N3    N13   A    
C7    C79   A    
O3    H53   S    
C12   H4    S    
C47   H27   S    
C68   H42   S    
N14   Ni3   S    
C84   H50   S    
C7    C32   S    
C6    C46   A    
C30   C33   A    
C72   H36   S    
C8    C31   S    
C71   H35   S    
S2    O6    S    
C41   C43   A    
C20   C22   A    
C40   C42   A    
C76   I2    S    
C19   C34   S    
C46   N6    A    
C53   C58   A    
N3    Ni2   S    
C13   C35   A    
C83   N15   A    
C25   C27   A    
C26   C28   A    
C2    N2    A    
N7    N11   A    
C54   H32   S    
C78   H44   S    
C14   S4    S    
C81   N13   A    
C30   C32   A    
N7    Ni4   S    
C11   C13   A    
C43   C47   A    
C13   S3    S    
C17   C19   A    
C56   C58   A    
C69   C75   S    
C35   C62   S    
C50   H30   S    
C5    C73   S    
C83   C85   A    
C17   S1    S    
C9    C65   A    
C10   H34   S    
C7    C67   A    
C12   C60   A    
C61   C65   A    
C39   H23   S    
C4    C82   A    
C52   H22   S    
C16   C18   A    
O12   H56   S    
C41   H25   S    
N2    N16   A    
C45   N5    A    
C38   C64   A    
C59   H51   S    
C23   N3    A    
C35   C63   A    
C15   C17   A    
N6    Ni4   S    
C82   N14   A    
C44   C48   A    
C26   H14   S    
C54   C57   A    
C60   H52   S    
