data_mof_unit_pretest_1340.cif
_audit_creation_date              2012-12-10T17:00:05-0500
_audit_creation_method            fapswitch 2.2
_symmetry_space_group_name_H-M    P1
_symmetry_Int_Tables_number       1
_space_group_crystal_system       triclinic
_cell_length_a                    15.053761
_cell_length_b                    15.119386
_cell_length_c                    10.091837
_cell_angle_alpha                 90.14246
_cell_angle_beta                  89.362841
_cell_angle_gamma                 89.9459
_cell_volume                      2296.78845747

loop_
_atom_site_label
_atom_site_type_symbol
_atom_type_description
_atom_site_fract_x
_atom_site_fract_y
_atom_site_fract_z
_atom_type_partial_charge
C1    C     C_R   0.387087 0.876242 0.500666 0.926040
C2    C     C_2   0.752070 0.177401 0.422403 -0.412118
C3    C     C_2   0.250013 0.319996 0.416888 -0.399945
C4    C     C_2   0.252076 0.677395 0.422412 -0.412114
C5    C     C_2   0.677225 0.806097 0.491999 0.338798
C6    C     C_2   0.677450 0.192928 0.492962 0.374485
C7    C     C_2   0.177225 0.306097 0.491999 0.338794
C8    C     C_2   0.177451 0.692928 0.492958 0.374499
C9    C     C_2   0.314984 0.249333 0.397213 0.586164
C10   C     C_2   0.317952 0.747063 0.400757 0.579884
C11   C     C_2   0.814983 0.749332 0.397212 0.586174
C12   C     C_R   0.386543 0.123392 0.500652 0.910368
C13   C     C_2   0.817943 0.247070 0.400748 0.579887
C14   C     C_2   0.334902 0.202512 0.505167 -0.377111
C15   C     C_2   0.336623 0.796420 0.506645 -0.348823
C16   C     C_2   0.834901 0.702511 0.505167 -0.377118
C17   C     C_2   0.836626 0.296418 0.506641 -0.348839
C18   C     C_2   0.554902 0.044734 0.927386 0.516846
C19   C     C_2   0.054902 0.544732 0.927387 0.516842
C20   C     C_2   0.569375 0.018459 0.073102 0.582576
C21   C     C_2   0.069376 0.518453 0.073102 0.582574
C22   C     C_3   0.593215 0.718171 0.636826 -0.258446
C23   C     C_R   0.887087 0.376241 0.500666 0.926031
C24   C     C_3   0.566950 0.292026 0.564557 -0.301496
C25   C     C_3   0.093217 0.218172 0.636827 -0.258439
C26   C     C_3   0.066947 0.792023 0.564557 -0.301488
C27   C     C_3   0.304591 0.251744 0.168283 -0.243094
C28   C     C_3   0.318677 0.722961 0.172376 -0.295952
C29   C     C_3   0.804594 0.751754 0.168280 -0.243116
C30   C     C_3   0.818613 0.223028 0.172357 -0.295951
C31   C     C_3   0.584646 0.192148 0.954958 -0.328510
C32   C     C_3   0.084645 0.692146 0.954970 -0.328545
C33   C     C_3   0.720380 0.996739 0.041868 -0.418257
C34   C     C_R   0.886542 0.623392 0.500652 0.910366
C35   C     C_3   0.220388 0.496766 0.041844 -0.418195
C36   C     C_3   0.353360 0.979106 0.139382 -0.058085
C37   C     C_3   0.853359 0.479118 0.139380 -0.058109
C38   C     C_R   0.616418 0.120598 0.499208 0.791814
C39   C     C_R   0.615944 0.878645 0.498988 0.807422
C40   C     C_R   0.116418 0.620598 0.499207 0.791801
C41   C     C_R   0.115944 0.378645 0.498988 0.807415
C42   C     C_2   0.750012 0.819996 0.416887 -0.399954
H1    H     H_    0.762620 0.883698 0.370310 0.141268
H2    H     H_    0.618938 0.755662 0.723223 0.183275
H3    H     H_    0.584576 0.648525 0.668686 0.186767
H4    H     H_    0.540179 0.252630 0.648725 0.191063
H5    H     H_    0.529457 0.278590 0.472211 0.159674
H6    H     H_    0.557005 0.362817 0.589744 0.188841
H7    H     H_    0.026937 0.242814 0.606387 0.171072
H8    H     H_    0.118939 0.255664 0.723224 0.183275
H9    H     H_    0.084578 0.148526 0.668689 0.186771
H10   H     H_    0.040198 0.752631 0.648745 0.191073
H11   H     H_    0.029439 0.778571 0.472231 0.159678
H12   H     H_    0.763531 0.113274 0.376001 0.148876
H13   H     H_    0.056997 0.862815 0.589732 0.188845
H14   H     H_    0.295589 0.323915 0.153873 0.151359
H15   H     H_    0.239173 0.217961 0.178797 0.176321
H16   H     H_    0.337460 0.225163 0.077644 0.190307
H17   H     H_    0.248256 0.745269 0.170210 0.164184
H18   H     H_    0.323532 0.649680 0.172349 0.184559
H19   H     H_    0.351039 0.746308 0.079781 0.202435
H20   H     H_    0.795609 0.823928 0.153871 0.151344
H21   H     H_    0.739169 0.717986 0.178790 0.176316
H22   H     H_    0.837459 0.725168 0.077640 0.190310
H23   H     H_    0.262620 0.383698 0.370310 0.141273
H24   H     H_    0.748203 0.245373 0.170236 0.164150
H25   H     H_    0.823428 0.149743 0.172282 0.184610
H26   H     H_    0.850968 0.246381 0.079760 0.202428
H27   H     H_    0.622689 0.186633 0.048175 0.180655
H28   H     H_    0.512822 0.203278 0.977089 0.174978
H29   H     H_    0.609681 0.251290 0.901557 0.197848
H30   H     H_    0.122692 0.686628 0.048183 0.180642
H31   H     H_    0.012822 0.703274 0.977108 0.175002
H32   H     H_    0.109677 0.751291 0.901573 0.197842
H33   H     H_    0.736339 0.052134 0.973732 0.215417
H34   H     H_    0.263541 0.613263 0.376027 0.148849
H35   H     H_    0.703607 0.935643 0.985527 0.165284
H36   H     H_    0.781414 0.982768 0.098690 0.189944
H37   H     H_    0.236356 0.552206 0.973794 0.215405
H38   H     H_    0.203615 0.435709 0.985405 0.165281
H39   H     H_    0.281417 0.482751 0.098653 0.189918
H40   H     H_    0.322409 0.005499 0.231174 0.188868
H41   H     H_    0.372089 0.908574 0.150231 0.199352
H42   H     H_    0.301617 0.981607 0.062088 0.127649
H43   H     H_    0.822407 0.505510 0.231171 0.188870
H44   H     H_    0.872085 0.408585 0.150230 0.199347
H45   H     H_    0.310207 0.222363 0.602638 0.146304
H46   H     H_    0.801619 0.481621 0.062082 0.127644
H47   H     H_    0.312730 0.777474 0.604775 0.170819
H48   H     H_    0.810207 0.722363 0.602638 0.146305
H49   H     H_    0.812742 0.277464 0.604773 0.170826
H50   H     H_    0.526936 0.742815 0.606386 0.171074
I1    I     I_    0.477600 0.867406 0.902203 -0.414560
I2    I     I_    0.977595 0.367407 0.902203 -0.414527
N1    N     N_2   0.501330 1.000000 0.852150 -0.078214
N2    N     N_2   0.001330 0.500000 0.852150 -0.078218
N3    N     N_2   0.501360 1.000000 0.147810 0.042478
N4    N     N_2   0.001360 0.500000 0.147810 0.042482
O1    O     O_R   0.409520 0.909540 0.613040 -0.595606
O2    O     O_R   0.590440 0.909540 0.613100 -0.627340
O3    O     O_R   0.090440 0.590460 0.613100 -0.561504
O4    O     O_R   0.090440 0.409540 0.613100 -0.627344
O5    O     O_R   0.590480 0.090460 0.386960 -0.596433
O6    O     O_R   0.590480 0.909540 0.386960 -0.588488
O7    O     O_R   0.090480 0.590460 0.386960 -0.596431
O8    O     O_R   0.090480 0.409540 0.386960 -0.588478
O9    O     O_3   0.654196 0.719983 0.529933 -0.623274
O10   O     O_3   0.658807 0.276653 0.546329 -0.620014
O11   O     O_3   0.154197 0.219984 0.529935 -0.623275
O12   O     O_R   0.409520 0.090460 0.613040 -0.613672
O13   O     O_3   0.158803 0.776661 0.546292 -0.620023
O14   O     O_3   0.359823 0.234920 0.277360 -0.590819
O15   O     O_3   0.363997 0.759449 0.281250 -0.599470
O16   O     O_3   0.859821 0.734917 0.277358 -0.590803
O17   O     O_3   0.863975 0.259462 0.281232 -0.599461
O18   O     O_3   0.597964 0.117408 0.873270 -0.602862
O19   O     O_3   0.097962 0.617410 0.873274 -0.602874
O20   O     O_3   0.652402 0.020784 0.132207 -0.615677
O21   O     O_3   0.152405 0.520759 0.132206 -0.615678
O22   O     O_3   0.424727 0.032476 0.097826 -0.600322
O23   O     O_R   0.909520 0.409540 0.613040 -0.595603
O24   O     O_3   0.924730 0.532485 0.097830 -0.600314
O25   O     O_R   0.909520 0.590460 0.613040 -0.613668
O26   O     O_R   0.409560 0.909540 0.386900 -0.596128
O27   O     O_R   0.409560 0.090460 0.386900 -0.550423
O28   O     O_R   0.909560 0.409540 0.386900 -0.596124
O29   O     O_R   0.909560 0.590460 0.386900 -0.550420
O30   O     O_R   0.590440 0.090460 0.613100 -0.561490
Zn1   Zn    Zn3+2 0.499970 0.000000 0.650990 1.010549
Zn2   Zn    Zn3+2 0.999970 0.500000 0.650990 1.010545
Zn3   Zn    Zn3+2 0.500030 0.000000 0.349010 1.052101
Zn4   Zn    Zn3+2 0.000030 0.500000 0.349010 1.052110

loop_
_geom_bond_atom_site_label_1
_geom_bond_atom_site_label_2
_ccdc_geom_bond_type
C5    C42   D    
C29   H21   S    
C16   H48   S    
C34   O25   A    
C37   H46   S    
C35   O21   S    
C17   H49   S    
O23   Zn2   S    
C4    C8    D    
C26   H13   S    
C1    O1    A    
C20   O20   S    
C35   H39   S    
C39   O6    A    
C23   O23   A    
C2    C6    D    
O8    Zn4   S    
C17   C23   S    
C11   C42   S    
C37   H43   S    
C19   C21   S    
C14   H45   S    
C3    C7    D    
C10   C15   D    
C32   H32   S    
C33   H36   S    
C36   H41   S    
C22   O9    S    
C35   H38   S    
C41   O4    A    
O12   Zn1   S    
C2    C13   S    
C11   O16   S    
O29   Zn4   S    
C29   O16   S    
C16   C34   S    
C40   O3    A    
C25   H8    S    
C33   H33   S    
C31   H28   S    
C22   H2    S    
C20   N3    D    
C36   H40   S    
C34   O29   A    
O6    Zn3   S    
C6    C38   S    
C1    C15   S    
C32   O19   S    
C30   H25   S    
C25   O11   S    
C28   H19   S    
C9    O14   S    
C31   H29   S    
C29   H22   S    
C33   O20   S    
I1    N1    S    
O30   Zn1   S    
C18   N1    D    
C3    H23   S    
C12   O12   A    
O7    Zn4   S    
C30   O17   S    
C28   H18   S    
C41   O8    A    
O1    Zn1   S    
C24   H6    S    
C37   H44   S    
N3    Zn3   S    
C32   H30   S    
C2    H12   S    
C8    O13   S    
C18   O18   S    
C32   H31   S    
C27   H14   S    
C12   O27   A    
C7    O11   S    
O26   Zn3   S    
C9    C14   D    
C25   H9    S    
C38   O5    A    
C3    C9    S    
C26   H10   S    
C15   H47   S    
C11   C16   D    
O27   Zn3   S    
O28   Zn4   S    
C30   H24   S    
I2    N2    S    
C13   O17   S    
C10   O15   S    
C23   O28   A    
C24   O10   S    
C12   C14   S    
C27   O14   S    
C5    C39   S    
O25   Zn2   S    
C27   H15   S    
C42   H1    S    
C4    C10   S    
C26   H11   S    
C31   O18   S    
N2    Zn2   S    
C5    O9    S    
C28   H17   S    
N4    O24   S    
C29   H20   S    
C6    O10   S    
O2    Zn1   S    
C24   H5    S    
O4    Zn2   S    
C27   H16   S    
C38   O30   A    
C13   C17   D    
C24   H4    S    
N3    O22   S    
C1    O26   A    
C21   O21   S    
O3    Zn2   S    
C21   N4    D    
C33   H35   S    
C39   O2    A    
C36   H42   S    
C35   H37   S    
C18   C20   S    
C7    C41   S    
C36   O22   S    
C25   H7    S    
C4    H34   S    
C28   O15   S    
C37   O24   S    
C31   H27   S    
C22   H3    S    
C19   O19   S    
N4    Zn4   S    
N1    Zn1   S    
C22   H50   S    
C8    C40   S    
O5    Zn3   S    
C26   O13   S    
C30   H26   S    
C19   N2    D    
C40   O7    A    
