data_mof_unit_pretest_43.cif
_audit_creation_date              2012-12-10T16:54:05-0500
_audit_creation_method            fapswitch 2.2
_symmetry_space_group_name_H-M    P1
_symmetry_Int_Tables_number       1
_space_group_crystal_system       triclinic
_cell_length_a                    9.678367
_cell_length_b                    10.910724
_cell_length_c                    13.455763
_cell_angle_alpha                 90.158536
_cell_angle_beta                  72.431554
_cell_angle_gamma                 90.18997
_cell_volume                      1354.61672414

loop_
_atom_site_label
_atom_site_type_symbol
_atom_type_description
_atom_site_fract_x
_atom_site_fract_y
_atom_site_fract_z
_atom_type_partial_charge
C1    C     C_R   0.502195 0.734891 0.494885 0.744796
C2    C     C_R   0.435168 0.486292 0.979464 0.084280
C3    C     C_R   0.470986 0.456218 0.871997 0.082873
C4    C     C_R   0.541921 0.470162 0.031560 0.077702
C5    C     C_R   0.676899 0.415160 0.978326 0.165780
C6    C     C_R   0.702603 0.373147 0.876664 -0.250048
C7    C     C_R   0.600284 0.391119 0.824962 -0.205683
C8    C     C_R   0.519074 0.507438 0.135039 -0.251811
C9    C     C_R   0.755643 0.433222 0.132490 -0.193237
C10   C     C_R   0.375317 0.490748 0.815000 -0.106994
C11   C     C_2   0.601667 0.065850 0.520575 -0.121625
C12   C     C_R   0.422449 0.494144 0.700125 0.777908
C13   C     C_2   0.489247 0.133681 0.515561 -0.269001
C14   C     C_2   0.586807 0.932531 0.530657 -0.239268
C15   C     C_2   0.509539 0.867702 0.480688 0.300320
C16   C     C_2   0.050887 0.564274 0.565198 -0.092047
C17   C     C_2   0.896520 0.568655 0.561911 -0.069523
C18   C     C_R   0.497976 0.265332 0.503853 0.835244
C19   C     C_R   0.577572 0.498779 0.300023 0.804163
C20   C     C_R   0.783535 0.399583 0.028431 -0.200515
C21   C     C_R   0.621503 0.484084 0.186746 -0.048172
C22   C     C_R   0.236520 0.534452 0.868458 -0.193044
C23   C     C_R   0.195202 0.550877 0.975620 -0.156356
C24   C     C_R   0.293558 0.529928 0.030580 -0.184013
Cu1   Cu    Cu3+1 0.361370 0.499980 0.499980 0.929965
Cu2   Cu    Cu3+1 0.638630 0.500020 0.500020 0.935766
H1    H     H_    0.836247 0.414770 0.171487 0.153586
H2    H     H_    0.384621 0.091656 0.523735 0.156818
H3    H     H_    0.639021 0.887477 0.581705 0.119510
H4    H     H_    0.077821 0.618929 0.624254 0.149006
H5    H     H_    0.130109 0.453784 0.442006 0.195637
H6    H     H_    0.823107 0.631338 0.614962 0.156044
H7    H     H_    0.913195 0.437977 0.453936 0.189845
H8    H     H_    0.802274 0.325685 0.836859 0.146567
H9    H     H_    0.886865 0.358015 0.987981 0.139847
H10   H     H_    0.421137 0.553446 0.178337 0.143027
H11   H     H_    0.160516 0.559057 0.827028 0.151742
H12   H     H_    0.253790 0.546250 0.113288 0.124433
H13   H     H_    0.087412 0.583882 0.016078 0.147116
H14   H     H_    0.623050 0.350171 0.748586 0.173871
H15   H     H_    0.702748 0.108049 0.522224 0.155666
N1    N     N_2   0.152660 0.501340 0.501130 -0.278754
N2    N     N_2   0.846520 0.501370 0.501160 -0.281925
O1    O     O_R   0.382960 0.678040 0.499980 -0.587272
O2    O     O_R   0.617100 0.678080 0.500020 -0.577107
O3    O     O_R   0.325800 0.499940 0.650950 -0.575420
O4    O     O_R   0.559930 0.499980 0.650990 -0.579428
O5    O     O_R   0.382900 0.321920 0.499980 -0.575635
O6    O     O_R   0.617040 0.321960 0.500020 -0.582237
O7    O     O_R   0.440070 0.500020 0.349010 -0.586590
O8    O     O_R   0.674200 0.500060 0.349050 -0.573445
O9    O     O_3   0.471774 0.921729 0.398614 -0.602926
C25   C     C_3   0.325097 0.900686 0.404391 0.053546
H16   H     H_    0.276882 0.990625 0.395197 0.152012
H17   H     H_    0.256861 0.864456 0.480931 0.133507
C26   C     C_3   0.317255 0.818237 0.313911 -0.314606
H18   H     H_    0.372260 0.864584 0.238851 0.216644
H19   H     H_    0.374662 0.730905 0.315532 0.234984
C27   C     C_3   0.160740 0.790270 0.318910 -0.902325
H20   H     H_    0.104219 0.742135 0.392609 0.266599
H21   H     H_    0.159173 0.730342 0.252418 0.246221
H22   H     H_    0.102162 0.876416 0.314303 0.253983

loop_
_geom_bond_atom_site_label_1
_geom_bond_atom_site_label_2
_ccdc_geom_bond_type
Cu1   N1    S    
C24   H12   S    
C23   C24   A    
C17   N2    D    
C13   H2    S    
C6    C7    A    
C1    C15   S    
H5    N1    S    
C16   N1    D    
C9    C20   A    
C2    C4    A    
C19   O7    A    
C26   C27   S    
C4    C8    A    
C7    H14   S    
C9    C21   A    
C25   C26   S    
C14   C15   D    
C2    C3    A    
C27   H20   S    
C3    C10   A    
C25   H16   S    
O9    C25   S    
C11   C13   D    
Cu1   O5    S    
C1    O2    A    
C10   C12   S    
Cu2   O4    S    
C12   O4    A    
C23   H13   S    
C13   C18   S    
Cu1   O1    S    
C19   C21   S    
C26   H19   S    
Cu2   N2    S    
C11   H15   S    
C3    C7    A    
C25   H17   S    
C2    C24   A    
C5    C6    A    
C11   C14   S    
C27   H21   S    
Cu2   O8    S    
C14   H3    S    
C16   H4    S    
H7    N2    S    
C19   O8    A    
C26   H18   S    
C9    H1    S    
C12   O3    A    
C8    H10   S    
Cu2   O6    S    
C5    C20   A    
C17   H6    S    
Cu1   O7    S    
C16   C17   S    
C27   H22   S    
C1    O1    A    
Cu2   O2    S    
Cu1   Cu2   S    
C15   O9    S    
C22   H11   S    
Cu1   O3    S    
C20   H9    S    
C22   C23   A    
C10   C22   A    
C6    H8    S    
C18   O6    A    
C18   O5    A    
C4    C5    A    
C8    C21   A    
