data_mof_unit_pretest_781.cif
_audit_creation_date              2012-10-26T19:19:37-0400
_audit_creation_method            fapswitch 2.2
_symmetry_space_group_name_H-M    P1
_symmetry_Int_Tables_number       1
_space_group_crystal_system       triclinic
_cell_length_a                    15.911799
_cell_length_b                    10.926481
_cell_length_c                    9.687145
_cell_angle_alpha                 89.993814
_cell_angle_beta                  89.847004
_cell_angle_gamma                 90.130575
_cell_volume                      1684.19634466

loop_
_atom_site_label
_atom_site_type_symbol
_atom_type_description
_atom_site_fract_x
_atom_site_fract_y
_atom_site_fract_z
_atom_type_partial_charge
C1    C     C_R   0.497109 0.265454 0.500094 0.552889
C2    C     C_2   0.516838 0.866743 0.500323 0.242262
C3    C     C_2   0.495218 0.066403 0.388081 -0.100410
C4    C     C_R   0.340319 0.499841 0.500295 0.558872
C5    C     C_2   0.487869 0.133978 0.502485 -0.048751
C6    C     C_2   0.450845 0.430348 0.922308 0.015783
C7    C     C_2   0.452626 0.427745 0.078045 0.005912
C8    C     C_R   0.503828 0.734646 0.500031 0.545322
C9    C     C_R   0.659680 0.500096 0.499780 0.569218
C10   C     C_3   0.048456 0.472647 0.659817 0.119624
C11   C     C_3   0.049063 0.395732 0.407058 0.158427
C12   C     C_3   0.949707 0.455329 0.650136 0.079578
C13   C     C_3   0.950413 0.405000 0.393957 0.381682
C14   C     C_1   0.749070 0.500391 0.499667 0.103099
C15   C     C_3   0.083329 0.495546 0.509975 -0.108138
C16   C     C_3   0.916841 0.499452 0.503839 -0.000762
C17   C     C_3   0.954554 0.630466 0.475232 0.093586
C18   C     C_3   0.051236 0.621717 0.459143 -0.249009
C19   C     C_1   0.824476 0.500692 0.501043 0.117305
C20   C     C_1   0.175539 0.496845 0.505100 0.058524
C21   C     C_1   0.250924 0.498449 0.501564 0.084089
C22   C     C_2   0.487881 0.933017 0.393664 -0.075206
Cu1   Cu    Cu3+1 0.500020 0.500020 0.638630 1.028228
Cu2   Cu    Cu3+1 0.499980 0.499980 0.361370 1.000258
H1    H     H_    0.939752 0.354793 0.653741 0.207515
H2    H     H_    0.076386 0.417456 0.303831 0.181586
H3    H     H_    0.081406 0.697913 0.516971 0.200441
H4    H     H_    0.070344 0.634111 0.349540 0.164032
H5    H     H_    0.941639 0.686542 0.568111 0.230052
H6    H     H_    0.044611 0.757614 0.870122 0.383939
H7    H     H_    0.830199 0.668857 0.876123 0.391727
H8    H     H_    0.992851 0.732084 0.156293 0.362766
H9    H     H_    0.584769 0.857700 0.667414 0.350296
H10   H     H_    0.057086 0.095052 0.585138 0.396266
H11   H     H_    0.915586 0.241605 0.331404 0.398464
H12   H     H_    0.458395 0.888399 0.305945 0.117719
H13   H     H_    0.869325 0.436650 0.246249 0.371949
H14   H     H_    0.503560 0.109079 0.287671 0.148434
H15   H     H_    0.472677 0.092558 0.601312 0.174068
H16   H     H_    0.406540 0.370102 0.871067 0.154466
H17   H     H_    0.542939 0.553465 0.893756 0.218328
H18   H     H_    0.411659 0.362660 0.129647 0.151752
H19   H     H_    0.075268 0.384820 0.696868 0.187243
H20   H     H_    0.536313 0.562979 0.105844 0.219061
N1    N     N_2   0.499090 0.498660 0.846910 -0.337949
N2    N     N_2   0.499070 0.498630 0.153040 -0.341212
O1    O     O_R   0.500010 0.321960 0.617040 -0.490654
O2    O     O_2   0.175002 0.624209 0.751991 -0.290654
O3    O     O_3   0.026712 0.711930 0.786892 -0.472941
O4    O     O_2   0.804298 0.432894 0.793044 -0.279216
O5    O     O_2   0.928284 0.472253 0.930692 -0.141752
O6    O     O_3   0.863638 0.653008 0.791634 -0.481013
O7    O     O_2   0.816182 0.713228 0.334199 -0.241324
O8    O     O_2   0.935343 0.851284 0.357185 -0.235810
O9    O     O_3   0.946828 0.674531 0.179897 -0.417241
O10   O     O_3   0.563262 0.921634 0.604220 -0.691380
O11   O     O_2   0.067769 0.162361 0.318779 -0.218651
O12   O     O_R   0.499990 0.321920 0.382900 -0.499845
O13   O     O_2   0.179498 0.240124 0.466382 -0.297508
O14   O     O_3   0.037774 0.181090 0.581129 -0.499103
O15   O     O_3   0.911517 0.290312 0.417657 -0.641539
O16   O     O_3   0.930955 0.444756 0.259257 -0.602075
O17   O     O_R   0.379450 0.500030 0.617120 -0.477267
O18   O     O_R   0.379420 0.499980 0.382980 -0.498041
O19   O     O_R   0.500010 0.678080 0.617100 -0.501417
O20   O     O_R   0.499990 0.678040 0.382960 -0.511885
O21   O     O_R   0.620580 0.500020 0.617020 -0.470102
O22   O     O_R   0.620550 0.499970 0.382880 -0.482525
O23   O     O_2   0.087212 0.529025 0.926198 -0.204035
S1    S     S_3+6 0.086531 0.585505 0.784764 0.045503
S2    S     S_3+6 0.885772 0.502729 0.796988 0.069149
S3    S     S_3+6 0.910458 0.719874 0.335097 0.048330
S4    S     S_3+6 0.086272 0.241192 0.442244 0.019672

loop_
_geom_bond_atom_site_label_1
_geom_bond_atom_site_label_2
_ccdc_geom_bond_type
C2    C22   D    
C15   C18   S    
Cu1   Cu2   S    
C9    O21   A    
C18   H4    S    
C8    O20   A    
C6    C7    S    
Cu1   N1    S    
C6    N1    D    
C22   H12   S    
C4    O18   A    
H8    O9    S    
O9    S3    S    
H7    O6    S    
Cu2   O20   S    
C12   H1    S    
C9    C14   S    
Cu2   N2    S    
Cu1   O19   S    
H9    O10   S    
Cu1   O17   S    
H13   O16   S    
C10   H19   S    
C9    O22   A    
O8    S3    D    
C8    O19   A    
H11   O15   S    
O6    S2    S    
C2    O10   S    
C17   H5    S    
H10   O14   S    
C4    C21   S    
C11   C13   S    
C4    O17   A    
O23   S1    D    
O5    S2    D    
C16   C19   S    
C1    C5    S    
C10   S1    S    
C12   S2    S    
H20   N2    S    
C17   C18   S    
C10   C12   S    
O3    S1    S    
C5    H15   S    
C15   C20   S    
C6    H16   S    
C7    H18   S    
Cu1   O1    S    
Cu2   O22   S    
O11   S4    D    
C7    N2    D    
C12   C16   S    
O14   S4    S    
C13   O15   S    
C20   C21   T    
C17   S3    S    
Cu2   O12   S    
C11   S4    S    
C13   C16   S    
Cu1   O21   S    
H17   N1    S    
C14   C19   T    
C1    O1    A    
C3    C22   S    
C18   H3    S    
C11   H2    S    
C10   C15   S    
C1    O12   A    
O7    S3    D    
C11   C15   S    
O4    S2    D    
H6    O3    S    
C2    C8    S    
C13   O16   S    
Cu2   O18   S    
C3    H14   S    
O2    S1    D    
C16   C17   S    
C3    C5    D    
O13   S4    D    
