data_mof_unit_pretest_893.cif
_audit_creation_date              2012-12-11T17:19:10-0500
_audit_creation_method            fapswitch 2.2
_symmetry_space_group_name_H-M    P1
_symmetry_Int_Tables_number       1
_space_group_crystal_system       triclinic
_cell_length_a                    14.78404
_cell_length_b                    7.26738
_cell_length_c                    13.350717
_cell_angle_alpha                 90.123727
_cell_angle_beta                  100.053009
_cell_angle_gamma                 89.834659
_cell_volume                      1412.38658843

loop_
_atom_site_label
_atom_site_type_symbol
_atom_type_description
_atom_site_fract_x
_atom_site_fract_y
_atom_site_fract_z
_atom_type_partial_charge
O1    O     O_R   0.648180 0.355050 0.151550 -0.528551
O2    O     O_R   0.351820 0.644950 0.848450 -0.528588
O3    O     O_R   0.851820 0.855050 0.348450 -0.530983
O4    O     O_R   0.148180 0.144950 0.651550 -0.530970
O5    O     O_R   0.835240 0.681980 0.154280 -0.529389
O6    O     O_R   0.164760 0.318020 0.845720 -0.529349
O7    O     O_R   0.664760 0.181980 0.345720 -0.521580
O8    O     O_R   0.335240 0.818020 0.654280 -0.521607
C1    C     C_R   0.862828 0.516123 0.132049 0.888189
C2    C     C_R   0.137173 0.483876 0.867952 0.888159
C3    C     C_R   0.637281 0.016697 0.368149 0.880668
C4    C     C_R   0.362720 0.983303 0.631852 0.880712
O9    O     O_R   0.647870 0.684600 0.139630 -0.531136
O10   O     O_R   0.352130 0.315400 0.860370 -0.531110
O11   O     O_R   0.852130 0.184600 0.360370 -0.529774
O12   O     O_R   0.147870 0.815400 0.639630 -0.529774
O13   O     O_R   0.663110 0.857440 0.333700 -0.542512
O14   O     O_R   0.336890 0.142560 0.666300 -0.542480
O15   O     O_R   0.836890 0.357440 0.166300 -0.537626
O16   O     O_R   0.163110 0.642560 0.833700 -0.537670
C5    C     C_R   0.614385 0.516179 0.114106 0.769463
C6    C     C_R   0.385613 0.483821 0.885896 0.769449
C7    C     C_R   0.885480 0.016051 0.386072 0.766879
C8    C     C_R   0.114519 0.983948 0.613930 0.766890
O17   O     O_3   0.755220 0.522230 0.313690 -0.375197
O18   O     O_3   0.244780 0.477770 0.686310 -0.375188
O19   O     O_3   0.744780 0.022230 0.186310 -0.377480
O20   O     O_3   0.255220 0.977770 0.813690 -0.377502
V1    V     V_3+5 0.749030 0.796100 0.238190 1.504494
V2    V     V_3+5 0.250970 0.203900 0.761810 1.504556
V3    V     V_3+5 0.750970 0.296100 0.261810 1.517986
V4    V     V_3+5 0.249030 0.703900 0.738190 1.517873
C9    C     C_1   0.966246 0.005378 0.466475 -0.162888
C10   C     C_1   0.033752 0.994622 0.533529 -0.162920
C11   C     C_1   0.533695 0.505514 0.033591 -0.176181
C12   C     C_1   0.466303 0.494487 0.966411 -0.176171
C13   C     C_R   0.559853 0.977727 0.716962 0.115006
C14   C     C_R   0.440151 0.022267 0.283035 0.115046
C15   C     C_R   0.940432 0.495412 0.782412 0.098172
C16   C     C_R   0.059570 0.504593 0.217587 0.098153
C17   C     C_R   0.653414 0.986159 0.759417 0.295518
C18   C     C_R   0.346596 0.013724 0.240571 0.295472
C19   C     C_R   0.846933 0.507223 0.740425 0.289907
C20   C     C_R   0.153068 0.492770 0.259574 0.289914
C21   C     C_R   0.718911 0.012510 0.696353 0.062676
C22   C     C_R   0.281094 0.987444 0.303638 0.062690
C23   C     C_R   0.780711 0.509824 0.803680 0.064843
C24   C     C_R   0.219289 0.490135 0.196318 0.064861
C25   C     C_R   0.690637 0.031356 0.590423 0.300867
C26   C     C_R   0.309361 0.968668 0.409573 0.300922
C27   C     C_R   0.808824 0.524878 0.909962 0.258853
C28   C     C_R   0.191174 0.475062 0.090037 0.258926
C29   C     C_R   0.595789 0.011283 0.544325 -0.074949
C30   C     C_R   0.404210 0.988723 0.455673 -0.074950
C31   C     C_R   0.904112 0.510922 0.955797 -0.067489
C32   C     C_R   0.095887 0.489055 0.044202 -0.067525
C33   C     C_R   0.528670 0.992412 0.608853 -0.069871
C34   C     C_R   0.471331 0.007592 0.391146 -0.069878
C35   C     C_R   0.971414 0.498257 0.890953 -0.076825
C36   C     C_R   0.028586 0.501737 0.109047 -0.076836
C37   C     C_R   0.567034 0.012499 0.435733 -0.086747
C38   C     C_R   0.432965 0.987509 0.564266 -0.086764
C39   C     C_R   0.932932 0.509569 0.064425 -0.087677
C40   C     C_R   0.067068 0.490425 0.935576 -0.087687
O21   O     O_3   0.676885 0.969586 0.864192 -0.648516
H1    H     H_    0.744050 0.975399 0.886633 0.298480
O22   O     O_3   0.323132 0.030266 0.135794 -0.648529
H2    H     H_    0.255999 0.023372 0.113289 0.298437
O23   O     O_3   0.822827 0.515764 0.635743 -0.641514
H3    H     H_    0.767964 0.595856 0.618554 0.310566
O24   O     O_3   0.177176 0.484262 0.364256 -0.641501
H4    H     H_    0.232042 0.404182 0.381454 0.310627
N1    N     N_3   0.497390 0.947987 0.786460 -0.645652
H5    H     H_    0.514871 0.824780 0.825514 0.258210
H6    H     H_    0.504005 0.056038 0.839104 0.252348
N2    N     N_3   0.502613 0.052083 0.213544 -0.645638
H7    H     H_    0.485101 0.175276 0.174486 0.258230
H8    H     H_    0.496032 0.944031 0.160903 0.252320
N3    N     N_3   0.002994 0.479559 0.711777 -0.644457
H9    H     H_    0.986308 0.361970 0.667118 0.255114
H10   H     H_    0.995446 0.594871 0.664277 0.258267
N4    N     N_3   0.997010 0.520477 0.288223 -0.644466
H11   H     H_    0.013700 0.638071 0.332874 0.255096
H12   H     H_    0.004553 0.405175 0.335730 0.258289
N5    N     N_3   0.184642 0.982820 0.262033 -0.685339
H13   H     H_    0.171693 0.874583 0.209951 0.229691
H14   H     H_    0.165443 0.106993 0.225015 0.235274
N6    N     N_3   0.815358 0.017277 0.737962 -0.685362
H15   H     H_    0.828241 0.125336 0.790168 0.229894
H16   H     H_    0.834638 0.893008 0.774832 0.235090
N7    N     N_3   0.315792 0.508361 0.238326 -0.673990
H17   H     H_    0.324918 0.566976 0.310841 0.238904
H18   H     H_    0.343326 0.607879 0.195872 0.243085
N8    N     N_3   0.684209 0.491567 0.761671 -0.674051
H19   H     H_    0.675084 0.433041 0.689132 0.238951
H20   H     H_    0.656695 0.391972 0.804098 0.243199
O25   O     O_3   0.755646 0.071627 0.531021 -0.652040
H21   H     H_    0.810860 0.127432 0.572373 0.336716
O26   O     O_3   0.244342 0.928501 0.468982 -0.652030
H22   H     H_    0.189107 0.872745 0.427628 0.336652
O27   O     O_3   0.742629 0.551674 0.969665 -0.658450
H23   H     H_    0.688502 0.614470 0.929911 0.326550
O28   O     O_3   0.257365 0.448197 0.030337 -0.658446
H24   H     H_    0.311473 0.385346 0.070092 0.326666

loop_
_geom_bond_atom_site_label_1
_geom_bond_atom_site_label_2
_ccdc_geom_bond_type
O17   V3    S    
C28   O28   S    
O1    C5    A    
O27   H23   S    
C16   C36   A    
C31   C35   A    
O19   V1    S    
O13   V1    S    
N1    H5    S    
O3    C7    A    
C11   C12   T    
O15   V3    S    
O25   H21   S    
C33   C38   A    
C14   N2    S    
N5    H13   S    
O7    C3    A    
C35   C40   A    
C26   C30   A    
C36   C39   A    
O9    V1    S    
N2    H8    S    
C14   C18   A    
C30   C34   A    
O4    C8    A    
O1    V3    S    
C20   O24   S    
O2    V4    S    
C18   C22   A    
O3    V1    S    
C14   C34   A    
C29   C37   A    
C1    O15   A    
C2    O16   A    
C7    C9    S    
C24   N7    S    
C31   C39   A    
O2    C6    A    
C32   C40   A    
O14   V2    S    
C16   C20   A    
C22   N5    S    
C34   C37   A    
O11   C7    A    
O12   C8    A    
N1    H6    S    
N8    H19   S    
O10   V2    S    
O5    V1    S    
N5    H14   S    
C15   C19   A    
O7    V3    S    
O22   H2    S    
O8    V4    S    
C16   N4    S    
C21   N6    S    
N2    H7    S    
N7    H17   S    
N3    H10   S    
C29   C33   A    
O18   V4    S    
C17   O21   S    
C30   C38   A    
C8    C10   S    
C32   C36   A    
C15   N3    S    
O5    C1    A    
N7    H18   S    
C4    C38   S    
O26   H22   S    
C21   C25   A    
O8    C4    A    
C15   C35   A    
C9    C10   T    
C26   O26   S    
O9    C5    A    
N8    H20   S    
O6    V2    S    
N6    H16   S    
N4    H11   S    
N4    H12   S    
C18   O22   S    
C27   O27   S    
O16   V4    S    
C13   N1    S    
C3    O13   A    
C1    C39   S    
C2    C40   S    
C3    C37   S    
O6    C2    A    
C23   C27   A    
O11   V3    S    
C5    C11   S    
O12   V4    S    
C6    C12   S    
C22   C26   A    
O10   C6    A    
O20   V2    S    
O24   H4    S    
C25   C29   A    
C23   N8    S    
C27   C31   A    
C13   C17   A    
O23   H3    S    
O4    V2    S    
C25   O25   S    
N3    H9    S    
C28   C32   A    
C24   C28   A    
N6    H15   S    
C19   O23   S    
O21   H1    S    
C4    O14   A    
O28   H24   S    
C17   C21   A    
C19   C23   A    
C13   C33   A    
C20   C24   A    
