data_mof_unit_pretest_823.cif
_audit_creation_date              2012-12-10T20:41:46-0500
_audit_creation_method            fapswitch 2.2
_symmetry_space_group_name_H-M    P1
_symmetry_Int_Tables_number       1
_space_group_crystal_system       triclinic
_cell_length_a                    15.035666
_cell_length_b                    15.2393
_cell_length_c                    9.893611
_cell_angle_alpha                 90.755341
_cell_angle_beta                  88.403077
_cell_angle_gamma                 90.208577
_cell_volume                      2265.8634977

loop_
_atom_site_label
_atom_site_type_symbol
_atom_type_description
_atom_site_fract_x
_atom_site_fract_y
_atom_site_fract_z
_atom_type_partial_charge
C1    C     C_R   0.382197 0.877709 0.500176 0.886080
C2    C     C_R   0.381990 0.122426 0.500830 0.886120
C3    C     C_R   0.882196 0.377710 0.500176 0.886083
C4    C     C_R   0.881990 0.622426 0.500830 0.886121
C5    C     C_3   0.284317 0.228226 0.752862 -0.341386
C6    C     C_3   0.254385 0.810123 0.740937 -0.383445
C7    C     C_3   0.784316 0.728225 0.752864 -0.341391
C8    C     C_3   0.754416 0.310095 0.740948 -0.383526
C9    C     C_R   0.428533 0.967681 0.074887 0.038283
C10   C     C_R   0.928533 0.467685 0.074886 0.038274
C11   C     C_R   0.574042 0.022358 0.069039 -0.096675
C12   C     C_R   0.074041 0.522361 0.069039 -0.096675
C13   C     C_R   0.574250 0.021665 0.925334 -0.104444
C14   C     C_R   0.074249 0.521668 0.925334 -0.104447
C15   C     C_R   0.426971 0.971499 0.931942 0.069477
C16   C     C_R   0.926970 0.471500 0.931942 0.069497
C17   C     C_3   0.339569 0.017895 0.946774 1.073181
C18   C     C_3   0.839570 0.517897 0.946773 1.073215
C19   C     C_3   0.337092 0.001105 0.096020 -0.532177
C20   C     C_3   0.837091 0.501110 0.096017 -0.532173
C21   C     C_R   0.622754 0.117158 0.499238 0.867911
C22   C     C_R   0.622621 0.882870 0.498018 0.867743
C23   C     C_R   0.122755 0.617157 0.499238 0.867909
C24   C     C_R   0.122621 0.382870 0.498017 0.867743
C25   C     C_R   0.310463 0.251301 0.611563 0.073634
C26   C     C_R   0.296947 0.765508 0.620747 0.088744
C27   C     C_R   0.810461 0.751300 0.611565 0.073632
C28   C     C_R   0.796959 0.265498 0.620737 0.088776
C29   C     C_R   0.326481 0.198795 0.497338 -0.105318
C30   C     C_R   0.327583 0.801066 0.499296 -0.102732
C31   C     C_R   0.826481 0.698795 0.497338 -0.105316
C32   C     C_R   0.827580 0.301069 0.499293 -0.102727
C33   C     C_R   0.292751 0.225332 0.372858 -0.197923
C34   C     C_R   0.306836 0.759632 0.376373 -0.211682
C35   C     C_R   0.792751 0.725331 0.372858 -0.197924
C36   C     C_R   0.806821 0.259646 0.376372 -0.211697
C37   C     C_R   0.729106 0.790517 0.370609 -0.220912
C38   C     C_R   0.742492 0.194417 0.375818 -0.219196
C39   C     C_R   0.229106 0.290517 0.370608 -0.220911
C40   C     C_R   0.242506 0.694404 0.375820 -0.219181
C41   C     C_R   0.699821 0.829168 0.492835 -0.089931
C42   C     C_R   0.699996 0.171291 0.498225 -0.091061
C43   C     C_R   0.199822 0.329169 0.492834 -0.089932
C44   C     C_R   0.199997 0.671289 0.498229 -0.091065
C45   C     C_R   0.747426 0.815912 0.609195 0.124486
C46   C     C_R   0.734044 0.200516 0.620340 0.118105
C47   C     C_R   0.247428 0.315913 0.609194 0.124485
C48   C     C_R   0.234032 0.700526 0.620351 0.118092
C49   C     C_3   0.715320 0.799849 0.750486 -0.514461
C50   C     C_3   0.686032 0.237202 0.742559 -0.485722
C51   C     C_3   0.215321 0.299851 0.750484 -0.514461
C52   C     C_3   0.186000 0.737231 0.742551 -0.485675
H1    H     H_    0.309897 0.191963 0.278704 0.180929
H2    H     H_    0.334843 0.781664 0.280545 0.172341
H3    H     H_    0.809898 0.691964 0.278704 0.180927
H4    H     H_    0.834818 0.281687 0.280547 0.172353
H5    H     H_    0.333267 0.061752 0.158756 0.213188
H6    H     H_    0.290091 0.948174 0.127326 0.180054
H7    H     H_    0.833266 0.561758 0.158749 0.213183
H8    H     H_    0.790089 0.448182 0.127325 0.180054
H9    H     H_    0.698080 0.804780 0.275870 0.178176
H10   H     H_    0.721692 0.167516 0.279797 0.165084
H11   H     H_    0.198079 0.304780 0.275871 0.178178
H12   H     H_    0.221715 0.667494 0.279795 0.165069
H13   H     H_    0.729748 0.856058 0.819343 0.205870
H14   H     H_    0.690970 0.193826 0.831448 0.199203
H15   H     H_    0.229750 0.356059 0.819341 0.205872
H16   H     H_    0.190924 0.693866 0.831463 0.199197
H17   H     H_    0.645948 0.774313 0.757066 0.222157
H18   H     H_    0.617684 0.260074 0.721391 0.216478
H19   H     H_    0.145949 0.274315 0.757064 0.222157
H20   H     H_    0.117652 0.760104 0.721351 0.216453
H21   H     H_    0.338411 0.244260 0.823430 0.253621
H22   H     H_    0.297723 0.810168 0.830183 0.218793
H23   H     H_    0.838410 0.744259 0.823431 0.253617
H24   H     H_    0.797766 0.310130 0.830175 0.218769
H25   H     H_    0.253790 0.161775 0.758795 0.268004
H26   H     H_    0.225316 0.874286 0.714089 0.258024
H27   H     H_    0.753789 0.661774 0.758798 0.268007
H28   H     H_    0.725345 0.374260 0.714134 0.258057
H29   H     H_    0.633469 0.042006 0.120788 0.130017
H30   H     H_    0.133468 0.542011 0.120788 0.130015
H31   H     H_    0.634050 0.039995 0.869243 0.134267
H32   H     H_    0.134049 0.540003 0.869243 0.134269
N1    N     N_R   0.499140 0.000000 0.142800 -0.080903
N2    N     N_R   0.999140 0.500000 0.142800 -0.080903
N3    N     N_R   0.499160 1.000000 0.857150 -0.098253
N4    N     N_R   0.999160 0.500000 0.857150 -0.098255
O1    O     O_R   0.408400 0.908380 0.614690 -0.603748
O2    O     O_R   0.408400 0.091620 0.614690 -0.569247
O3    O     O_R   0.908400 0.408380 0.614690 -0.603750
O4    O     O_R   0.908400 0.591620 0.614690 -0.569244
O5    O     O_R   0.408370 0.908370 0.385350 -0.619475
O6    O     O_R   0.408370 0.091630 0.385350 -0.628004
O7    O     O_R   0.908370 0.408370 0.385350 -0.619478
O8    O     O_R   0.908370 0.591630 0.385350 -0.628003
O9    O     O_R   0.591610 0.091610 0.614650 -0.623689
O10   O     O_R   0.591610 0.908390 0.614650 -0.624982
O11   O     O_R   0.091610 0.591610 0.614650 -0.623688
O12   O     O_R   0.091610 0.408390 0.614650 -0.624982
O13   O     O_R   0.591590 0.091600 0.385310 -0.628161
O14   O     O_R   0.591590 0.908400 0.385310 -0.626724
O15   O     O_R   0.091590 0.591600 0.385310 -0.628159
O16   O     O_R   0.091590 0.408400 0.385310 -0.626723
Zn1   Zn    Zn3+2 0.500010 0.000000 0.653130 0.990032
Zn2   Zn    Zn3+2 0.000010 0.500000 0.653130 0.990032
Zn3   Zn    Zn3+2 0.499980 1.000000 0.346870 0.953468
Zn4   Zn    Zn3+2 0.999980 0.500000 0.346870 0.953469
F1    F     F_    0.349176 0.105800 0.922066 -0.715288
F2    F     F_    0.270556 0.979124 0.879367 -0.717925
F3    F     F_    0.849179 0.605796 0.922061 -0.715297
F4    F     F_    0.770561 0.479126 0.879370 -0.717925

loop_
_geom_bond_atom_site_label_1
_geom_bond_atom_site_label_2
_ccdc_geom_bond_type
O13   Zn3   S    
C23   O11   A    
C22   O10   A    
C14   H32   S    
C17   F2    S    
C7    C27   S    
C11   H29   S    
C28   C46   A    
C33   C39   A    
O10   Zn1   S    
C49   H13   S    
C2    C29   S    
C34   C40   A    
C32   C36   A    
C15   N3    A    
C35   C37   A    
C18   F4    S    
C38   C42   A    
C6    H26   S    
C22   C41   S    
C29   C33   A    
C8    H24   S    
N4    Zn2   S    
C3    O3    A    
C42   C46   A    
C2    O2    A    
C9    N1    A    
C4    O8    A    
C9    C19   S    
C23   O15   A    
C10   C20   S    
O15   Zn4   S    
C20   H8    S    
C25   C47   A    
C40   C44   A    
C52   H16   S    
C26   C48   A    
O9    Zn1   S    
C27   C45   A    
O8    Zn4   S    
C49   H17   S    
C25   C29   A    
O3    Zn2   S    
C51   H19   S    
C28   C32   A    
C6    H22   S    
C19   H6    S    
C33   H1    S    
O6    Zn3   S    
C30   C34   A    
C35   H3    S    
C2    O6    A    
C18   F3    S    
C7    C49   S    
C47   C51   S    
C27   C31   A    
C19   H5    S    
C23   C44   S    
C24   O16   A    
C36   H4    S    
C21   O9    A    
C37   H9    S    
N3    Zn1   S    
C45   C49   S    
C8    H28   S    
C52   H20   S    
C13   N3    A    
C12   H30   S    
O14   Zn3   S    
C16   C18   S    
C51   H15   S    
C20   H7    S    
C50   H14   S    
C5    C25   S    
O4    Zn2   S    
C12   C14   A    
C34   H2    S    
C4    O4    A    
C8    C28   S    
C31   C35   A    
C5    H25   S    
C8    C50   S    
O16   Zn4   S    
C7    H27   S    
C15   C17   S    
O11   Zn2   S    
C13   H31   S    
C10   N2    A    
C1    O1    A    
C24   O12   A    
C5    H21   S    
N2    Zn4   S    
O2    Zn1   S    
C17   F1    S    
C7    H23   S    
C26   C30   A    
C39   H11   S    
C46   C50   S    
O12   Zn2   S    
C22   O14   A    
C12   N2    A    
C36   C38   A    
C50   H18   S    
C14   N4    A    
C21   O13   A    
C10   C16   A    
O5    Zn3   S    
C11   C13   A    
C6    C26   S    
C11   N1    A    
C40   H12   S    
C1    C30   S    
C17   C19   S    
C18   C20   S    
C37   C41   A    
C3    C32   S    
C4    C31   S    
O7    Zn4   S    
C21   C42   S    
C48   C52   S    
C39   C43   A    
C1    O5    A    
O1    Zn1   S    
C16   N4    A    
C24   C43   S    
C41   C45   A    
C5    C51   S    
C3    O7    A    
C6    C52   S    
N1    Zn3   S    
C43   C47   A    
C44   C48   A    
C9    C15   A    
C38   H10   S    
