data_mof_unit_pretest_1842.cif
_audit_creation_date              2012-12-10T18:59:12-0500
_audit_creation_method            fapswitch 2.2
_symmetry_space_group_name_H-M    P1
_symmetry_Int_Tables_number       1
_space_group_crystal_system       triclinic
_cell_length_a                    43.880218
_cell_length_b                    30.265847
_cell_length_c                    30.282564
_cell_angle_alpha                 90.000033
_cell_angle_beta                  133.446716
_cell_angle_gamma                 90.0
_cell_volume                      29198.4216637

loop_
_atom_site_label
_atom_site_type_symbol
_atom_type_description
_atom_site_fract_x
_atom_site_fract_y
_atom_site_fract_z
_atom_type_partial_charge
C1    C     C_R   0.499989 0.999992 0.586331 0.864764
C2    C     C_3   0.725515 0.997162 0.773576 -0.392954
C3    C     C_R   0.512373 0.297001 0.050283 -0.177079
C4    C     C_R   0.987880 0.842806 0.949857 -0.192766
C5    C     C_R   0.012120 0.842806 0.050143 -0.192765
C6    C     C_R   0.487880 0.342806 0.949857 -0.192764
C7    C     C_R   0.512120 0.342806 0.050144 -0.192761
C8    C     C_R   1.000000 0.865866 1.000000 -0.028247
C9    C     C_R   0.500000 0.365866 0.000000 -0.028247
C10   C     C_R   1.000000 0.774100 1.000000 0.111146
C11   C     C_R   0.500000 0.274100 0.000000 0.111145
C12   C     C_R   0.536344 0.203268 0.048387 -0.174356
C13   C     C_3   0.774487 0.502545 0.226405 -0.392941
C14   C     C_R   0.463657 0.203268 0.951613 -0.174358
C15   C     C_R   0.036343 0.703268 0.048388 -0.174359
C16   C     C_R   0.963657 0.703268 0.951612 -0.174359
C17   C     C_R   0.536443 0.157464 0.048220 -0.185325
C18   C     C_R   0.463557 0.157464 0.951780 -0.185325
C19   C     C_R   0.036443 0.657464 0.048221 -0.185329
C20   C     C_R   0.963557 0.657464 0.951779 -0.185328
C21   C     C_R   0.500000 0.134412 0.000000 -0.030107
C22   C     C_R   1.000000 0.634412 1.000000 -0.030107
C23   C     C_3   0.274226 0.043267 0.295015 -0.391635
C24   C     C_3   0.225513 0.500106 0.773661 -0.392952
C25   C     C_3   0.725776 0.043000 0.704445 -0.391667
C26   C     C_3   0.774204 0.540327 0.300205 -0.391989
C27   C     C_3   0.225787 0.541603 0.701864 -0.391840
C28   C     C_R   0.500000 0.226169 0.000000 0.110221
C29   C     C_R   1.000000 0.726170 1.000000 0.110224
C30   C     C_R   0.012139 0.203178 0.050140 -0.179303
C31   C     C_R   0.987861 0.203178 0.949860 -0.179304
C32   C     C_R   0.487871 0.703178 0.949866 -0.179310
C33   C     C_R   0.512130 0.703178 0.050134 -0.179311
C34   C     C_R   0.011897 0.157393 0.050007 -0.193545
C35   C     C_1   0.163146 0.000091 0.162921 -0.121398
C36   C     C_R   0.988103 0.157393 0.949993 -0.193544
C37   C     C_R   0.488112 0.657393 0.949999 -0.193543
C38   C     C_R   0.511888 0.657393 0.050001 -0.193547
C39   C     C_R   1.000000 0.134355 1.000000 -0.027412
C40   C     C_R   0.500000 0.634355 0.000000 -0.027417
C41   C     C_R   1.000000 0.226052 1.000000 0.111833
C42   C     C_R   0.500000 0.726052 0.000000 0.111843
C43   C     C_R   0.536273 0.796811 0.048572 -0.177520
C44   C     C_R   0.463727 0.796811 0.951428 -0.177519
C45   C     C_R   0.963720 0.296810 0.951444 -0.177521
C46   C     C_1   0.836854 0.000091 0.837078 -0.121398
C47   C     C_R   0.036280 0.296810 0.048556 -0.177521
C48   C     C_R   0.536372 0.842596 0.048415 -0.192667
C49   C     C_R   0.463628 0.842596 0.951585 -0.192666
C50   C     C_R   0.963621 0.342595 0.951601 -0.192667
C51   C     C_R   0.036379 0.342595 0.048399 -0.192665
C52   C     C_R   0.500000 0.865623 0.000000 -0.031051
C53   C     C_R   1.000000 0.365622 1.000000 -0.031068
C54   C     C_R   0.500000 0.773936 0.000000 0.111850
C55   C     C_R   1.000000 0.273936 1.000000 0.111842
C56   C     C_3   0.225631 0.043291 0.246373 -0.394333
C57   C     C_1   0.663146 0.500092 0.162922 -0.121396
C58   C     C_3   0.774371 0.043024 0.753087 -0.394311
C59   C     C_3   0.725609 0.540350 0.251563 -0.394087
C60   C     C_3   0.274382 0.541627 0.750507 -0.394195
C61   C     C_1   0.125597 0.000108 0.125417 -0.184606
C62   C     C_1   0.874403 0.000108 0.874583 -0.184606
C63   C     C_1   0.625596 0.500108 0.125417 -0.184606
C64   C     C_1   0.374403 0.500108 0.874583 -0.184607
C65   C     C_3   0.291109 0.000031 0.290986 0.354817
C66   C     C_3   0.708891 0.000031 0.709014 0.354814
C67   C     C_3   0.791109 0.500031 0.290986 0.354790
C68   C     C_1   0.336854 0.500092 0.837078 -0.121396
C69   C     C_3   0.208891 0.500031 0.709014 0.354801
C70   C     C_3   0.225572 0.960312 0.252337 -0.393742
C71   C     C_3   0.774426 0.959976 0.748163 -0.393768
C72   C     C_3   0.725591 0.457267 0.247205 -0.393971
C73   C     C_3   0.274417 0.458430 0.750659 -0.393888
C74   C     C_3   0.208880 0.000070 0.208677 0.355372
C75   C     C_3   0.791120 0.000070 0.791322 0.355371
C76   C     C_3   0.708880 0.500070 0.208677 0.355359
C77   C     C_3   0.291120 0.500070 0.791322 0.355367
C78   C     C_1   0.336843 0.000011 0.336771 -0.120966
C79   C     C_1   0.663157 0.000012 0.663229 -0.120966
C80   C     C_1   0.836843 0.500011 0.336771 -0.120965
C81   C     C_R   0.500011 0.999992 0.413669 0.864764
C82   C     C_1   0.163157 0.500011 0.663229 -0.120966
C83   C     C_1   0.374393 0.000002 0.374365 -0.184219
C84   C     C_1   0.625607 0.000002 0.625634 -0.184220
C85   C     C_1   0.874393 0.500002 0.374365 -0.184219
C86   C     C_1   0.125607 0.500002 0.625634 -0.184220
C87   C     C_R   0.501692 0.040376 0.704752 -0.179426
C88   C     C_R   0.498306 0.040375 0.295247 -0.179427
C89   C     C_R   0.001695 0.540376 0.704755 -0.179422
C90   C     C_R   0.998293 0.540375 0.295233 -0.179422
C91   C     C_R   0.501374 0.040241 0.658704 -0.193402
C92   C     C_R   0.999989 0.499992 0.586331 0.864763
C93   C     C_R   0.498624 0.040241 0.341295 -0.193403
C94   C     C_R   0.001377 0.540241 0.658706 -0.193397
C95   C     C_R   0.998611 0.540241 0.341282 -0.193397
C96   C     C_R   0.500127 0.000039 0.634497 -0.032513
C97   C     C_R   0.499873 0.000039 0.365503 -0.032511
C98   C     C_R   0.000127 0.500039 0.634498 -0.032512
C99   C     C_R   0.999874 0.500039 0.365503 -0.032510
C100  C     C_R   0.499094 0.959972 0.656724 -0.198035
C101  C     C_R   0.500907 0.959972 0.343277 -0.198035
C102  C     C_R   0.999093 0.459972 0.656723 -0.198041
C103  C     C_R   0.000011 0.499992 0.413669 0.864764
C104  C     C_R   0.000921 0.459972 0.343291 -0.198041
C105  C     C_R   0.499343 0.960155 0.702761 -0.173311
C106  C     C_R   0.500658 0.960155 0.297239 -0.173310
C107  C     C_R   0.999342 0.460155 0.702761 -0.173313
C108  C     C_R   0.000672 0.460155 0.297254 -0.173317
C109  C     C_R   0.418904 0.000000 0.418919 0.915424
C110  C     C_R   0.581096 0.000000 0.581081 0.915423
C111  C     C_R   0.918904 0.500000 0.418919 0.915423
C112  C     C_R   0.081096 0.500000 0.581081 0.915422
C113  C     C_R   0.500739 0.000356 0.726940 0.139974
C114  C     C_3   0.225887 0.996582 0.177819 -0.389989
C115  C     C_R   0.499261 0.000356 0.273060 0.139974
C116  C     C_R   0.000740 0.500356 0.726940 0.139974
C117  C     C_R   0.999261 0.500356 0.273061 0.139977
C118  C     C_R   0.471595 0.975542 0.769195 -0.177877
C119  C     C_R   0.528406 0.975543 0.230806 -0.177878
C120  C     C_R   0.971594 0.475543 0.769195 -0.177878
C121  C     C_R   0.028414 0.475552 0.230814 -0.177882
C122  C     C_R   0.471228 0.976686 0.814525 -0.238906
C123  C     C_R   0.528773 0.976687 0.185475 -0.238906
C124  C     C_R   0.971227 0.476687 0.814525 -0.238906
C125  C     C_3   0.774113 0.997185 0.822221 -0.389984
C126  C     C_R   0.028780 0.476697 0.185483 -0.238906
C127  C     C_R   0.500194 0.002996 0.866141 -0.148156
C128  C     C_R   0.499806 0.002996 0.133859 -0.148156
C129  C     C_R   0.000194 0.502996 0.866141 -0.148157
C130  C     C_R   0.999806 0.502997 0.133859 -0.148169
C131  C     C_R   0.529341 0.029455 0.871750 0.443446
C132  C     C_R   0.470658 0.029454 0.128250 0.443446
C133  C     C_R   0.029342 0.529455 0.871750 0.443447
C134  C     C_R   0.970651 0.529446 0.128243 0.443447
C135  C     C_R   0.529881 0.027239 0.826507 -0.169354
C136  C     C_3   0.725889 0.502569 0.177761 -0.389996
C137  C     C_R   0.470118 0.027238 0.173492 -0.169356
C138  C     C_R   0.029882 0.527239 0.826508 -0.169355
C139  C     C_R   0.970111 0.527229 0.173485 -0.169363
C140  C     C_R   0.500970 0.000715 0.775178 0.012864
C141  C     C_R   0.499030 0.000715 0.224822 0.012866
C142  C     C_R   0.000970 0.500715 0.775179 0.012865
C143  C     C_R   0.999030 0.500715 0.224822 0.012870
C144  C     C_R   1.000000 0.913838 1.000000 0.861462
C145  C     C_R   0.500000 0.413838 0.000000 0.861466
C146  C     C_R   0.081085 0.000124 0.081037 0.913659
C147  C     C_3   0.274111 0.500129 0.822305 -0.389981
C148  C     C_R   0.918915 0.000124 0.918963 0.913662
C149  C     C_R   0.581085 0.500124 0.081037 0.913660
C150  C     C_R   0.418915 0.500124 0.918963 0.913663
C151  C     C_R   1.000000 0.086424 1.000000 0.861580
C152  C     C_R   0.500000 0.586425 0.000000 0.861577
C153  C     C_3   0.274167 0.960290 0.300980 -0.392332
C154  C     C_3   0.725831 0.959954 0.699520 -0.392293
C155  C     C_3   0.774186 0.457244 0.295848 -0.391946
C156  C     C_3   0.225821 0.458407 0.702016 -0.392099
C157  C     C_R   0.500000 0.086457 0.000000 0.846485
C158  C     C_3   0.274485 0.996559 0.226463 -0.392952
C159  C     C_R   1.000000 0.586457 1.000000 0.846486
C160  C     C_R   0.500077 0.001180 0.913796 0.863478
C161  C     C_R   0.499923 0.001180 0.086204 0.863479
C162  C     C_R   0.000077 0.501180 0.913796 0.863480
C163  C     C_R   0.999923 0.501180 0.086205 0.863489
C164  C     C_R   0.500000 0.913536 0.000000 0.873605
C165  C     C_R   1.000000 0.413536 1.000000 0.873611
C166  C     C_R   0.987628 0.797001 0.949718 -0.177082
C167  C     C_R   0.012372 0.797001 0.050282 -0.177086
C168  C     C_R   0.487628 0.297001 0.949718 -0.177081
H1    H     H_    0.213759 0.962093 0.275116 0.167980
H2    H     H_    0.786052 0.928652 0.774634 0.167665
H3    H     H_    0.213779 0.470479 0.779914 0.169105
H4    H     H_    0.286252 0.024822 0.218185 0.169094
H5    H     H_    0.713749 0.025675 0.781499 0.169097
H6    H     H_    0.786241 0.533084 0.221783 0.169117
H7    H     H_    0.213754 0.529773 0.779806 0.169108
H8    H     H_    0.214263 0.965716 0.150421 0.169194
H9    H     H_    0.785735 0.966520 0.850004 0.169218
H10   H     H_    0.714282 0.473905 0.146663 0.169428
H11   H     H_    0.285725 0.470513 0.851929 0.169335
H12   H     H_    0.545651 0.066904 0.937294 0.334673
H13   H     H_    0.713979 0.427801 0.217337 0.167884
H14   H     H_    0.454348 0.066903 0.062706 0.334673
H15   H     H_    0.045652 0.566904 0.937295 0.334673
H16   H     H_    0.954335 0.566896 0.062696 0.334673
H17   H     H_    0.286035 0.428074 0.779014 0.167780
H18   H     H_    0.214306 0.024856 0.146170 0.169342
H19   H     H_    0.785695 0.025709 0.853513 0.169317
H20   H     H_    0.714295 0.533120 0.149769 0.169082
H21   H     H_    0.285700 0.529808 0.851820 0.169191
H22   H     H_    0.502244 0.071682 0.722643 0.134598
H23   H     H_    0.497754 0.071682 0.277355 0.134598
H24   H     H_    0.002248 0.571683 0.722646 0.134600
H25   H     H_    0.786239 0.961320 0.725364 0.167967
H26   H     H_    0.997729 0.571682 0.277332 0.134598
H27   H     H_    0.502085 0.071563 0.642132 0.158706
H28   H     H_    0.497912 0.071563 0.357866 0.158706
H29   H     H_    0.002088 0.571563 0.642135 0.158707
H30   H     H_    0.997888 0.571562 0.357842 0.158707
H31   H     H_    0.498150 0.928558 0.638685 0.157733
H32   H     H_    0.501851 0.928558 0.361316 0.157733
H33   H     H_    0.998148 0.428558 0.638683 0.157732
H34   H     H_    0.001877 0.428559 0.361342 0.157732
H35   H     H_    0.498885 0.929015 0.719943 0.133072
H36   H     H_    0.713776 0.454726 0.269934 0.167844
H37   H     H_    0.501117 0.929015 0.280058 0.133072
H38   H     H_    0.998883 0.429015 0.719942 0.133070
H39   H     H_    0.001142 0.429016 0.280083 0.133070
H40   H     H_    0.448792 0.955312 0.729277 0.143459
H41   H     H_    0.551209 0.955313 0.270724 0.143458
H42   H     H_    0.948791 0.455313 0.729276 0.143457
H43   H     H_    0.051223 0.455330 0.270738 0.143456
H44   H     H_    0.448716 0.956476 0.809760 0.163661
H45   H     H_    0.551285 0.956478 0.190241 0.163662
H46   H     H_    0.948715 0.456478 0.809759 0.163663
H47   H     H_    0.286231 0.457649 0.727845 0.167902
H48   H     H_    0.051299 0.456495 0.190255 0.163673
H49   H     H_    0.285701 0.962061 0.347128 0.167112
H50   H     H_    0.714298 0.961288 0.653353 0.167118
H51   H     H_    0.785718 0.454694 0.341946 0.167190
H52   H     H_    0.214289 0.457616 0.655833 0.167152
H53   H     H_    0.552529 0.046893 0.830972 0.156650
H54   H     H_    0.447470 0.046891 0.169026 0.156650
H55   H     H_    0.052530 0.546892 0.830974 0.156652
H56   H     H_    0.947457 0.546875 0.169013 0.156653
H57   H     H_    0.978230 0.779401 0.910805 0.134524
H58   H     H_    0.285887 0.928771 0.298272 0.168957
H59   H     H_    0.021770 0.779401 0.089194 0.134523
H60   H     H_    0.478229 0.279401 0.910805 0.134523
H61   H     H_    0.521771 0.279401 0.089195 0.134522
H62   H     H_    0.978272 0.860125 0.910656 0.154354
H63   H     H_    0.021728 0.860125 0.089344 0.154354
H64   H     H_    0.478271 0.360125 0.910656 0.154352
H65   H     H_    0.521729 0.360125 0.089344 0.154351
H66   H     H_    0.564633 0.220868 0.085802 0.133472
H67   H     H_    0.435367 0.220868 0.914198 0.133469
H68   H     H_    0.064632 0.720868 0.085803 0.133466
H69   H     H_    0.714110 0.928619 0.702622 0.168968
H70   H     H_    0.935368 0.720868 0.914196 0.133467
H71   H     H_    0.564813 0.140138 0.085918 0.156021
H72   H     H_    0.435187 0.140138 0.914082 0.156019
H73   H     H_    0.064812 0.640138 0.085919 0.156019
H74   H     H_    0.935187 0.640138 0.914081 0.156019
H75   H     H_    0.021351 0.220784 0.088930 0.133033
H76   H     H_    0.978648 0.220784 0.911070 0.133033
H77   H     H_    0.478666 0.720783 0.911081 0.133030
H78   H     H_    0.521335 0.720783 0.088920 0.133030
H79   H     H_    0.021331 0.140077 0.089097 0.154182
H80   H     H_    0.785922 0.427767 0.289351 0.169047
H81   H     H_    0.978669 0.140077 0.910903 0.154182
H82   H     H_    0.478685 0.640078 0.910913 0.154187
H83   H     H_    0.521315 0.640078 0.089087 0.154188
H84   H     H_    0.564502 0.779206 0.086123 0.132547
H85   H     H_    0.435498 0.779206 0.913877 0.132550
H86   H     H_    0.935486 0.279205 0.913905 0.132557
H87   H     H_    0.064514 0.279205 0.086095 0.132558
H88   H     H_    0.564676 0.859926 0.086260 0.152875
H89   H     H_    0.435324 0.859926 0.913740 0.152875
H90   H     H_    0.935312 0.359925 0.913768 0.152889
H91   H     H_    0.214092 0.428041 0.707001 0.169014
H92   H     H_    0.064688 0.359925 0.086232 0.152889
H93   H     H_    0.285989 0.072357 0.287951 0.168999
H94   H     H_    0.714014 0.072325 0.711143 0.168994
H95   H     H_    0.785953 0.571535 0.296890 0.168943
H96   H     H_    0.214032 0.572005 0.706738 0.168969
H97   H     H_    0.285760 0.046507 0.341057 0.167431
H98   H     H_    0.714242 0.045806 0.658365 0.167418
H99   H     H_    0.785736 0.539248 0.346381 0.167322
H100  H     H_    0.214254 0.542285 0.655679 0.167364
H101  H     H_    0.213819 0.046543 0.269045 0.167831
H102  H     H_    0.213944 0.928804 0.226259 0.167642
H103  H     H_    0.786184 0.045841 0.730377 0.167847
H104  H     H_    0.713795 0.539284 0.274369 0.167984
H105  H     H_    0.286196 0.542322 0.727691 0.167925
H106  H     H_    0.214046 0.072391 0.215938 0.167664
H107  H     H_    0.785957 0.072360 0.783156 0.167637
H108  H     H_    0.714010 0.571570 0.224878 0.167427
H109  H     H_    0.285975 0.572040 0.778751 0.167518
H110  H     H_    0.286210 0.965682 0.222435 0.169123
H111  H     H_    0.713788 0.966487 0.777989 0.169120
H112  H     H_    0.786228 0.473870 0.218677 0.169095
O1    O     O_R   0.500000 0.963030 0.565470 -0.627570
O2    O     O_R   0.465320 0.999980 0.030770 -0.602112
O3    O     O_R   0.034680 0.499980 0.969230 -0.602114
O4    O     O_R   0.965320 0.499980 0.030770 -0.602106
O5    O     O_R   0.465320 0.934500 0.965310 -0.624628
O6    O     O_R   0.534680 0.934500 0.034690 -0.624628
O7    O     O_R   0.965320 0.434500 0.965310 -0.624631
O8    O     O_R   0.034680 0.434500 0.034690 -0.624632
O9    O     O_R   0.499990 0.036970 0.565490 -0.627814
O10   O     O_R   0.500010 0.036970 0.434510 -0.627815
O11   O     O_R   0.999990 0.536970 0.565490 -0.627812
O12   O     O_R   0.500000 0.963030 0.434530 -0.627571
O13   O     O_R   0.000010 0.536970 0.434510 -0.627814
O14   O     O_R   0.438570 0.963030 0.438570 -0.617085
O15   O     O_R   0.561430 0.963030 0.561430 -0.617084
O16   O     O_R   0.938570 0.463030 0.438570 -0.617086
O17   O     O_R   0.061430 0.463030 0.561430 -0.617087
O18   O     O_R   0.438570 0.036970 0.438590 -0.616863
O19   O     O_R   0.561430 0.036970 0.561410 -0.616861
O20   O     O_R   0.938570 0.536970 0.438590 -0.616861
O21   O     O_R   0.061430 0.536970 0.561410 -0.616859
O22   O     O_R   1.000000 0.934650 0.036980 -0.625979
O23   O     O_R   0.000000 0.463030 0.565470 -0.627571
O24   O     O_R   0.000000 0.934650 0.963020 -0.625980
O25   O     O_R   0.500000 0.434650 0.036980 -0.625980
O26   O     O_R   0.500000 0.434650 0.963020 -0.625979
O27   O     O_R   0.061420 0.000140 0.098400 -0.619776
O28   O     O_R   0.938580 0.000140 0.901600 -0.619777
O29   O     O_R   0.561420 0.500140 0.098400 -0.619775
O30   O     O_R   0.438580 0.500140 0.901600 -0.619776
O31   O     O_R   0.061430 0.000120 0.024480 -0.614462
O32   O     O_R   0.938570 0.000120 0.975520 -0.614462
O33   O     O_R   0.561430 0.500120 0.024480 -0.614462
O34   O     O_R   0.000000 0.463030 0.434530 -0.627571
O35   O     O_R   0.438570 0.500120 0.975520 -0.614462
O36   O     O_R   0.999990 0.065630 0.036960 -0.626437
O37   O     O_R   0.000010 0.065630 0.963040 -0.626437
O38   O     O_R   0.499990 0.565630 0.036960 -0.626437
O39   O     O_R   0.500010 0.565630 0.963040 -0.626438
O40   O     O_R   0.465320 0.065470 0.965350 -0.627031
O41   O     O_R   0.534680 0.065470 0.034650 -0.627031
O42   O     O_R   0.965320 0.565470 0.965350 -0.627032
O43   O     O_R   0.034680 0.565470 0.034650 -0.627031
O44   O     O_3   0.556918 0.058359 0.919298 -0.764057
O45   O     O_R   0.465320 0.999980 0.899860 -0.622510
O46   O     O_3   0.443081 0.058358 0.080701 -0.764057
O47   O     O_3   0.056919 0.558358 0.919299 -0.764055
O48   O     O_3   0.943066 0.558342 0.080687 -0.764047
O49   O     O_R   0.534680 0.999980 0.100140 -0.622511
O50   O     O_R   0.965320 0.499980 0.899860 -0.622509
O51   O     O_R   0.034680 0.499980 0.100140 -0.622514
O52   O     O_R   0.534680 0.999980 0.969230 -0.602113
Zn1   Zn    Zn3+2 0.500000 0.950630 0.500000 0.947651
Zn2   Zn    Zn3+2 0.546310 0.999980 0.046300 0.965467
Zn3   Zn    Zn3+2 0.953690 0.499980 0.953700 0.965470
Zn4   Zn    Zn3+2 0.046310 0.499980 0.046300 0.965463
Zn5   Zn    Zn3+2 0.000000 0.450630 0.500000 0.947648
Zn6   Zn    Zn3+2 0.500000 0.049370 0.500000 0.948514
Zn7   Zn    Zn3+2 0.000000 0.549370 0.500000 0.948516
Zn8   Zn    Zn3+2 0.000000 0.000140 0.049370 0.949078
Zn9   Zn    Zn3+2 0.000000 0.000140 0.950630 0.949077
Zn10  Zn    Zn3+2 0.500000 0.500140 0.049370 0.949077
Zn11  Zn    Zn3+2 0.500000 0.500140 0.950630 0.949076
Zn12  Zn    Zn3+2 0.453690 0.999980 0.953700 0.965468

loop_
_geom_bond_atom_site_label_1
_geom_bond_atom_site_label_2
_ccdc_geom_bond_type
C145  O26   A    
C99   C103  S    
C115  C141  S    
C160  O45   A    
C87   C91   A    
C18   C21   A    
C101  H32   S    
C90   C95   A    
C66   C79   S    
C154  H69   S    
C103  O34   A    
C164  O5    A    
C46   C62   T    
O15   Zn1   S    
C57   C76   S    
O12   Zn1   S    
O30   Zn11  S    
C95   C99   A    
C70   H102  S    
C22   C159  S    
C74   C114  S    
C89   C94   A    
C24   H3    S    
C46   C75   S    
C91   C96   A    
H15   O47   S    
C70   C74   S    
O49   Zn2   S    
C5    H63   S    
C81   O10   A    
C77   C147  S    
C148  O32   A    
C114  H8    S    
C159  O43   A    
C130  C134  A    
C118  C140  A    
C120  H42   S    
C50   C53   A    
C90   C117  A    
C31   H76   S    
O34   Zn5   S    
O11   Zn7   S    
C161  O2    A    
C132  C137  A    
C98   C102  A    
C137  H54   S    
C44   C49   A    
C17   C21   A    
H16   O48   S    
C15   C19   A    
C61   C146  S    
C91   H27   S    
C43   C54   A    
C27   H100  S    
C16   C20   A    
C71   H2    S    
C1    O9    A    
C33   H78   S    
C156  H52   S    
C36   H81   S    
C116  C142  S    
C17   H71   S    
C146  O27   A    
C60   H109  S    
C56   H106  S    
C119  C141  A    
C122  H44   S    
C165  O8    A    
C68   C77   S    
O39   Zn11  S    
O16   Zn5   S    
O43   Zn4   S    
C65   C158  S    
C5    C8    A    
O7    Zn3   S    
C119  C123  A    
C33   C38   A    
C106  C115  A    
C1    O1    A    
C25   H94   S    
C71   H25   S    
C158  H4    S    
C45   C50   A    
C157  O41   A    
C27   H96   S    
C161  O49   A    
C152  O39   A    
C81   O12   A    
C127  C131  A    
C87   C113  A    
C3    C11   A    
C19   H73   S    
O6    Zn2   S    
C147  H11   S    
C48   C52   A    
O2    Zn12  S    
C111  O20   A    
C126  C130  A    
C31   C36   A    
O27   Zn8   S    
C4    H62   S    
C88   H23   S    
C51   H92   S    
C6    H64   S    
C86   C112  S    
O18   Zn6   S    
C6    C9    A    
C162  O3    A    
O42   Zn3   S    
O1    Zn1   S    
C33   C42   A    
C64   C68   T    
C105  C113  A    
O28   Zn9   S    
C70   H1    S    
C37   C40   A    
C79   C84   T    
C138  H55   S    
C23   H93   S    
C39   C151  S    
C40   C152  S    
C118  C122  A    
C122  C127  A    
O4    Zn3   S    
O5    Zn12  S    
C65   C153  S    
C69   C82   S    
C49   H89   S    
C114  C158  S    
C15   H68   S    
C30   C41   A    
O29   Zn10  S    
O51   Zn4   S    
C153  H49   S    
C131  O44   S    
C27   C69   S    
C132  O46   S    
C16   H70   S    
C150  O30   A    
C62   C148  S    
C136  H20   S    
C14   H67   S    
C18   H72   S    
C57   C63   T    
C135  H53   S    
C6    C168  A    
C157  O40   A    
C69   C156  S    
C30   C34   A    
C34   C39   A    
C134  C139  A    
C26   H95   S    
C50   H90   S    
C71   C154  S    
C23   H97   S    
C51   C53   A    
O8    Zn4   S    
C10   C166  A    
C59   H108  S    
C102  C107  A    
C35   C61   T    
C32   C37   A    
C155  H51   S    
C126  H48   S    
C87   H22   S    
O22   Zn8   S    
O50   Zn3   S    
C93   H28   S    
C93   C97   A    
O9    Zn6   S    
C145  O25   A    
C101  C106  A    
C73   C77   S    
C31   C41   A    
O24   Zn9   S    
C108  C117  A    
C36   C39   A    
C25   C66   S    
C2    C66   S    
C24   C147  S    
C168  H60   S    
C73   H17   S    
C164  O6    A    
C32   H77   S    
C125  H19   S    
C94   H29   S    
C23   C65   S    
C88   C115  A    
O35   Zn10  S    
O36   Zn8   S    
C146  O31   A    
C147  H21   S    
C166  H57   S    
C96   C100  A    
C89   H24   S    
C59   H104  S    
O23   Zn5   S    
C107  C116  A    
C2    C125  S    
C44   C54   A    
C163  O4    A    
C45   C55   A    
C34   H79   S    
O19   Zn6   S    
O13   Zn7   S    
C152  O38   A    
C59   C76   S    
C13   H112  S    
C160  O52   A    
C35   C74   S    
C70   C153  S    
C3    H61   S    
C25   H98   S    
C133  O47   S    
C20   H74   S    
O38   Zn10  S    
C12   C28   A    
C72   H13   S    
C3    C7    A    
C27   C60   S    
C2    H5    S    
C44   H85   S    
C158  H110  S    
C94   C98   A    
C37   H82   S    
C67   C155  S    
C121  C143  A    
C41   C55   S    
C58   H107  S    
C78   C83   T    
C12   C17   A    
C103  O13   A    
C111  O16   A    
C4    C8    A    
C45   H86   S    
C72   H36   S    
C156  H91   S    
C99   C104  A    
C133  C138  A    
C134  O48   S    
C163  O51   A    
C13   H6    S    
C56   H101  S    
C15   C29   A    
C135  C140  A    
C119  H41   S    
C56   C74   S    
C153  H58   S    
C138  C142  A    
C66   C154  S    
C47   C51   A    
C82   C86   T    
C58   H103  S    
O33   Zn11  S    
C75   C125  S    
C149  O29   A    
C47   H87   S    
C80   C85   T    
C167  H59   S    
C90   H26   S    
C49   C52   A    
C110  O19   A    
C112  O21   A    
O45   Zn12  S    
O37   Zn9   S    
C52   C164  S    
C139  H56   S    
C53   C165  S    
C20   C22   A    
C123  H45   S    
C92   O23   A    
C11   C168  A    
C104  C108  A    
C26   H99   S    
C144  O22   A    
C150  O35   A    
C137  C141  A    
C65   C78   S    
O25   Zn10  S    
C102  H33   S    
C67   C80   S    
C85   C111  S    
C149  O33   A    
C114  H18   S    
C42   C54   S    
C38   C40   A    
C10   C29   S    
C165  O7    A    
C11   C28   S    
C162  O50   A    
C95   H30   S    
C73   C156  S    
C9    C145  S    
C128  C161  S    
C124  C129  A    
C32   C42   A    
C73   H47   S    
C24   H7    S    
C58   C75   S    
C130  C163  S    
C7    H65   S    
C14   C18   A    
C72   C76   S    
O20   Zn7   S    
C106  H37   S    
C76   C136  S    
C92   C98   S    
C23   C56   S    
C148  O28   A    
C124  H46   S    
C155  H80   S    
C12   H66   S    
C100  C105  A    
C26   C67   S    
C117  C143  S    
O52   Zn2   S    
C131  C135  A    
C109  O14   A    
C136  H10   S    
C151  O37   A    
C63   C149  S    
C107  H38   S    
C43   H84   S    
C10   C167  A    
H12   O44   S    
C159  O42   A    
C83   C109  S    
C154  H50   S    
C43   C48   A    
C144  O24   A    
C121  H43   S    
C89   C116  A    
C72   C155  S    
O21   Zn7   S    
C139  C143  A    
C108  H39   S    
C128  C132  A    
C24   C69   S    
O32   Zn8   S    
C60   C77   S    
C60   H105  S    
C19   C22   A    
C120  C142  A    
O3    Zn4   S    
C2    H111  S    
C16   C29   A    
C84   C110  S    
C64   C150  S    
C104  H34   S    
O31   Zn9   S    
C118  H40   S    
C38   H83   S    
O17   Zn5   S    
C113  C140  S    
C8    C144  S    
C109  O18   A    
O26   Zn11  S    
C30   H75   S    
C125  H9    S    
C151  O36   A    
C13   C136  S    
C129  C133  A    
C48   H88   S    
C25   C58   S    
C47   C55   A    
C13   C67   S    
C7    C9    A    
C88   C93   A    
O41   Zn2   S    
C105  H35   S    
C21   C157  S    
O14   Zn1   S    
C110  O15   A    
C112  O17   A    
H14   O46   S    
C121  C126  A    
C71   C75   S    
C123  C128  A    
C81   C97   S    
C1    C96   S    
C127  C160  S    
C92   O11   A    
C4    C166  A    
C129  C162  S    
C5    C167  A    
C100  H31   S    
C26   C59   S    
O10   Zn6   S    
C14   C28   A    
O40   Zn12  S    
C97   C101  A    
C120  C124  A    
