data_mof_unit_pretest_1424.cif
_audit_creation_date              2012-12-10T19:34:13-0500
_audit_creation_method            fapswitch 2.2
_symmetry_space_group_name_H-M    P1
_symmetry_Int_Tables_number       1
_space_group_crystal_system       triclinic
_cell_length_a                    12.996821
_cell_length_b                    15.76568
_cell_length_c                    17.106631
_cell_angle_alpha                 96.018445
_cell_angle_beta                  90.72326
_cell_angle_gamma                 85.821442
_cell_volume                      3476.58226859

loop_
_atom_site_label
_atom_site_type_symbol
_atom_type_description
_atom_site_fract_x
_atom_site_fract_y
_atom_site_fract_z
_atom_type_partial_charge
C1    C     C_R   0.499403 0.489793 0.348580 0.803040
C2    C     C_R   0.500597 0.510207 0.651420 0.803038
C3    C     C_R   0.507298 0.552234 0.143184 -0.177325
C4    C     C_R   0.492708 0.447765 0.856816 -0.177323
C5    C     C_R   0.499614 0.472707 0.097799 0.334459
C6    C     C_R   0.500390 0.527292 0.902201 0.334460
C7    C     C_R   0.492478 0.398227 0.136008 -0.013066
C8    C     C_R   0.507523 0.601773 0.863992 -0.013066
C9    C     C_R   0.491512 0.404867 0.218200 -0.279489
C10   C     C_R   0.508487 0.595133 0.781800 -0.279488
C11   C     C_R   0.461260 0.755539 0.455101 0.029721
C12   C     C_R   0.538735 0.244461 0.544901 0.029718
C13   C     C_R   0.463389 0.844601 0.458381 -0.381425
C14   C     C_R   0.536609 0.155399 0.541620 -0.381431
C15   C     C_R   0.517215 0.889843 0.519629 0.294928
C16   C     C_R   0.482790 0.110157 0.480369 0.294928
C17   C     C_R   0.566841 0.843316 0.577123 0.379180
C18   C     C_R   0.433169 0.156683 0.422871 0.379194
C19   C     C_R   0.565858 0.752776 0.569000 -0.055483
C20   C     C_R   0.434148 0.247224 0.430997 -0.055489
C21   C     C_R   0.301295 0.516718 0.503147 0.813699
C22   C     C_R   0.698705 0.483282 0.496854 0.813700
C23   C     C_R   0.811168 0.472258 0.491373 -0.119230
C24   C     C_R   0.188832 0.527742 0.508628 -0.119230
C25   C     C_R   0.028015 0.608096 0.549651 -0.039294
C26   C     C_R   0.971985 0.391904 0.450350 -0.039297
C27   C     C_R   0.136550 0.602753 0.545705 -0.066813
C28   C     C_R   0.863450 0.397247 0.454296 -0.066812
C29   C     C_R   0.133755 0.459673 0.476654 -0.271506
C30   C     C_R   0.866245 0.540326 0.523348 -0.271509
C31   C     C_R   0.026662 0.462492 0.481753 0.092744
C32   C     C_R   0.973338 0.537508 0.518249 0.092745
C33   C     C_R   0.499313 0.484069 0.262643 -0.041523
C34   C     C_R   0.500688 0.515930 0.737357 -0.041523
C35   C     C_R   0.507368 0.557558 0.224601 -0.244753
C36   C     C_R   0.492635 0.442441 0.775400 -0.244751
Cu1   Cu    Cu3+1 0.494970 0.415610 0.496200 0.944886
Cu2   Cu    Cu3+1 0.505030 0.584390 0.503800 0.944885
H1    H     H_    0.824102 0.596007 0.553010 0.174023
H2    H     H_    0.175898 0.403992 0.446993 0.174024
H3    H     H_    0.607431 0.715240 0.610053 0.139394
H4    H     H_    0.392578 0.284759 0.389942 0.139395
H5    H     H_    0.486609 0.380534 0.742296 0.161752
H6    H     H_    0.513396 0.619464 0.257704 0.161754
H7    H     H_    0.487390 0.389192 0.883917 0.165304
H8    H     H_    0.512618 0.610806 0.116083 0.165305
H9    H     H_    0.485671 0.347685 0.247466 0.151714
H10   H     H_    0.514326 0.652316 0.752534 0.151715
H11   H     H_    0.581926 0.278206 0.591206 0.141075
H12   H     H_    0.418066 0.721795 0.408799 0.141076
H13   H     H_    0.577632 0.122518 0.586359 0.189449
H14   H     H_    0.422361 0.877483 0.413644 0.189449
N1    N     N_2   0.495444 0.465793 0.014433 -0.267610
N2    N     N_2   0.504560 0.534206 0.985567 -0.267611
N3    N     N_R   0.512580 0.711160 0.509520 -0.180570
N4    N     N_R   0.487420 0.288840 0.490480 -0.180568
N5    N     N_2   0.522264 0.981223 0.526692 -0.203799
N6    N     N_2   0.477742 0.018776 0.473305 -0.203796
O1    O     O_R   0.495300 0.420890 0.382510 -0.589206
O2    O     O_R   0.504700 0.579110 0.617490 -0.589205
O3    O     O_R   0.503790 0.563430 0.388930 -0.592078
O4    O     O_R   0.496210 0.436570 0.611070 -0.592079
O5    O     O_R   0.345440 0.440310 0.497300 -0.583277
O6    O     O_R   0.654560 0.559690 0.502700 -0.583279
O7    O     O_R   0.353930 0.582840 0.503720 -0.569089
O8    O     O_R   0.646070 0.417160 0.496280 -0.569088
O9    O     O_3   0.620316 0.888280 0.637023 -0.578602
C37   C     C_3   0.608965 0.855729 0.710061 -0.371171
H15   H     H_    0.664617 0.799726 0.715372 0.164419
H16   H     H_    0.528627 0.839208 0.720056 0.156526
H17   H     H_    0.627564 0.905789 0.757575 0.191468
O10   O     O_3   0.379707 0.111716 0.362966 -0.578591
C38   C     C_3   0.391045 0.144282 0.289932 -0.371186
H18   H     H_    0.471370 0.160837 0.279944 0.156515
H19   H     H_    0.335364 0.200266 0.284623 0.164431
H20   H     H_    0.372479 0.094219 0.242413 0.191478
C39   C     C_R   0.805879 0.324811 0.418409 0.146976
C40   C     C_R   0.752088 0.331086 0.347270 -0.117684
C41   C     C_R   0.698448 0.262530 0.313523 -0.126795
C42   C     C_R   0.698085 0.187628 0.350570 -0.118559
C43   C     C_R   0.751451 0.181051 0.421356 -0.127840
C44   C     C_R   0.805201 0.249383 0.455308 -0.112087
H21   H     H_    0.751905 0.388865 0.318131 0.106838
H22   H     H_    0.657515 0.267276 0.258514 0.125130
H23   H     H_    0.656597 0.134604 0.324429 0.126661
H24   H     H_    0.750937 0.123055 0.450017 0.135337
H25   H     H_    0.846106 0.243724 0.510277 0.114963
C45   C     C_R   0.194121 0.675191 0.581588 0.146973
C46   C     C_R   0.194792 0.750619 0.544690 -0.112093
C47   C     C_R   0.248542 0.818953 0.578639 -0.127841
C48   C     C_R   0.301913 0.812378 0.649423 -0.118556
C49   C     C_R   0.301555 0.737475 0.686471 -0.126791
C50   C     C_R   0.247917 0.668918 0.652726 -0.117682
H26   H     H_    0.153884 0.756277 0.489722 0.114967
H27   H     H_    0.249050 0.876949 0.549978 0.135334
H28   H     H_    0.343399 0.865403 0.675562 0.126650
H29   H     H_    0.342492 0.732732 0.741478 0.125127
H30   H     H_    0.248104 0.611139 0.681866 0.106837
C51   C     C_R   0.972850 0.687552 0.587246 0.101987
C52   C     C_R   0.973910 0.705967 0.669319 -0.129905
C53   C     C_R   0.924144 0.781815 0.704368 -0.168625
C54   C     C_R   0.873141 0.839507 0.657746 -0.081844
C55   C     C_R   0.871026 0.821150 0.576031 -0.100792
C56   C     C_R   0.920907 0.745467 0.540733 -0.185344
H31   H     H_    0.013666 0.661834 0.705882 0.123873
H32   H     H_    0.925332 0.795991 0.767645 0.126326
H33   H     H_    0.835045 0.898353 0.684976 0.151983
H34   H     H_    0.831032 0.865704 0.540061 0.144444
H35   H     H_    0.919569 0.732049 0.477342 0.131695
C57   C     C_R   0.027151 0.312448 0.412756 0.101986
C58   C     C_R   0.079079 0.254526 0.459270 -0.185322
C59   C     C_R   0.128961 0.178843 0.423972 -0.100807
C60   C     C_R   0.126861 0.160492 0.342255 -0.081854
C61   C     C_R   0.075873 0.218192 0.295633 -0.168622
C62   C     C_R   0.026105 0.294040 0.330682 -0.129913
H36   H     H_    0.080406 0.267939 0.522661 0.131689
H37   H     H_    0.168944 0.134284 0.459942 0.144428
H38   H     H_    0.164957 0.101646 0.315026 0.151982
H39   H     H_    0.074696 0.204021 0.232355 0.126325
H40   H     H_    0.986360 0.338178 0.294119 0.123874
C63   C     C_R   0.486214 0.312639 0.091475 0.122991
C64   C     C_R   0.409588 0.259246 0.109489 -0.167642
C65   C     C_R   0.405366 0.177636 0.069308 -0.144851
C66   C     C_R   0.477508 0.148505 0.010939 -0.107147
C67   C     C_R   0.554155 0.200885 0.992776 -0.149775
C68   C     C_R   0.558891 0.282463 0.032972 -0.137784
H41   H     H_    0.352880 0.280902 0.154420 0.119347
H42   H     H_    0.346174 0.136948 0.083502 0.118867
H43   H     H_    0.474203 0.085265 0.979946 0.117643
H44   H     H_    0.610350 0.178066 0.947847 0.125309
H45   H     H_    0.620031 0.321516 0.019175 0.133845
C69   C     C_R   0.513784 0.687361 0.908525 0.122988
C70   C     C_R   0.590407 0.740758 0.890509 -0.167639
C71   C     C_R   0.594627 0.822368 0.930690 -0.144847
C72   C     C_R   0.522486 0.851498 0.989060 -0.107148
C73   C     C_R   0.445843 0.799115 0.007225 -0.149773
C74   C     C_R   0.441108 0.717536 0.967030 -0.137783
H46   H     H_    0.647115 0.719102 0.845577 0.119346
H47   H     H_    0.653817 0.863059 0.916494 0.118865
H48   H     H_    0.525789 0.914738 0.020053 0.117644
H49   H     H_    0.389647 0.821932 0.052155 0.125310
H50   H     H_    0.379971 0.678481 0.980828 0.133846

loop_
_geom_bond_atom_site_label_1
_geom_bond_atom_site_label_2
_ccdc_geom_bond_type
C74   H50   S    
C4    C36   A    
C53   C54   A    
C38   H19   S    
C38   H18   S    
C58   C59   A    
C24   C27   A    
C20   N4    A    
C61   C62   A    
N5    N6    D    
C1    C33   S    
C72   C73   A    
N1    N2    D    
C52   H31   S    
C42   H23   S    
C39   C44   A    
C5    N1    S    
C6    N2    S    
C1    O1    A    
C56   H35   S    
C2    O2    A    
C44   H25   S    
C64   H41   S    
C15   C17   A    
C46   H26   S    
C24   C29   A    
C22   O8    A    
C17   C19   A    
C48   H28   S    
C57   C58   A    
Cu1   N4    S    
C40   H21   S    
C25   C51   S    
Cu2   N3    S    
C14   H13   S    
C69   C70   A    
C8    C69   S    
C58   H36   S    
C26   C57   S    
C18   C20   A    
C43   H24   S    
O10   C38   S    
Cu2   O3    S    
C2    C34   S    
C25   C32   A    
C51   C56   A    
C55   H34   S    
C70   H46   S    
C9    C33   A    
C15   N5    S    
C27   C45   S    
C7    C63   S    
C67   H44   S    
C59   C60   A    
Cu1   O5    S    
C49   H29   S    
C43   C44   A    
Cu2   O6    S    
C4    H7    S    
C18   O10   S    
C72   H48   S    
C17   O9    S    
O9    C37   S    
C23   C30   A    
C65   C66   A    
C4    C6    A    
C71   H47   S    
C5    C7    A    
C40   C41   A    
C37   H15   S    
C6    C8    A    
C69   C74   A    
C39   C40   A    
C60   H38   S    
C12   H11   S    
Cu1   Cu2   S    
C35   H6    S    
C13   H14   S    
C31   C32   A    
Cu2   O7    S    
C3    C35   A    
Cu1   O8    S    
C54   H33   S    
C10   C34   A    
C16   N6    S    
C23   C28   A    
C28   C39   S    
C63   C64   A    
C12   N4    A    
Cu2   O2    S    
C16   C18   A    
C12   C14   A    
C9    H9    S    
C13   C15   A    
C10   H10   S    
C70   C71   A    
C38   H20   S    
C14   C16   A    
C48   C49   A    
C11   N3    A    
C60   C61   A    
C19   N3    A    
C53   H32   S    
C7    C9    A    
C45   C50   A    
C41   H22   S    
C21   O7    A    
C26   C31   A    
C61   H39   S    
C42   C43   A    
C3    C5    A    
C1    O3    A    
C20   H4    S    
C71   C72   A    
C25   C27   A    
C3    H8    S    
C26   C28   A    
C51   C52   A    
C59   H37   S    
C46   C47   A    
Cu1   O1    S    
C29   C31   A    
C11   H12   S    
C30   C32   A    
C11   C13   A    
C47   C48   A    
C67   C68   A    
C68   H45   S    
C37   H17   S    
C57   C62   A    
C29   H2    S    
C49   C50   A    
C33   C35   A    
C73   H49   S    
C66   H43   S    
C34   C36   A    
C54   C55   A    
C21   O5    A    
C22   O6    A    
C41   C42   A    
C19   H3    S    
C63   C68   A    
C45   C46   A    
C8    C10   A    
C62   H40   S    
C21   C24   S    
C65   H42   S    
C55   C56   A    
C37   H16   S    
Cu1   O4    S    
C22   C23   S    
C73   C74   A    
C36   H5    S    
C52   C53   A    
C64   C65   A    
C50   H30   S    
C47   H27   S    
C2    O4    A    
C30   H1    S    
C66   C67   A    
