data_mof_unit_pretest_1057.cif
_audit_creation_date              2012-12-11T15:20:43-0500
_audit_creation_method            fapswitch 2.2
_symmetry_space_group_name_H-M    P1
_symmetry_Int_Tables_number       1
_space_group_crystal_system       triclinic
_cell_length_a                    13.034191
_cell_length_b                    13.168479
_cell_length_c                    15.550817
_cell_angle_alpha                 116.634134
_cell_angle_beta                  62.958448
_cell_angle_gamma                 97.115836
_cell_volume                      2114.34577088

loop_
_atom_site_label
_atom_site_type_symbol
_atom_type_description
_atom_site_fract_x
_atom_site_fract_y
_atom_site_fract_z
_atom_type_partial_charge
C1    C     C_R   0.012112 0.832091 0.041815 -0.205435
C2    C     C_R   0.720617 0.409619 0.297521 -0.037009
C3    C     C_R   0.636819 0.569752 0.030621 0.142624
C4    C     C_R   0.051043 0.808493 0.306858 0.020204
C5    C     C_R   0.323369 0.578042 0.010087 -0.129436
C6    C     C_R   0.913316 0.196164 0.790541 -0.153547
C7    C     C_R   0.219119 0.456510 0.684598 -0.146462
C8    C     C_R   0.115996 0.257844 0.022945 -0.085967
C9    C     C_R   0.017224 0.174996 0.930184 -0.115658
C10   C     C_R   0.320931 0.531563 0.778857 -0.118124
C11   C     C_R   0.243368 0.481391 0.106983 -0.181101
C12   C     C_R   0.710611 0.391649 0.204913 -0.002119
C13   C     C_R   0.995383 0.293520 0.693933 -0.144496
C14   C     C_R   0.336328 0.541080 0.074813 0.166842
C15   C     C_R   0.946952 0.194338 0.693038 0.044677
C16   C     C_R   0.332303 0.472952 0.673466 0.053082
C17   C     C_R   0.115441 0.159258 0.937137 0.003393
C18   C     C_R   0.960780 0.000766 0.429280 -0.182783
C19   C     C_R   0.928723 0.094872 0.527375 -0.232247
C20   C     C_R   0.963576 0.093273 0.598910 0.160961
C21   C     C_R   0.027427 0.998234 0.575274 -0.182401
C22   C     C_R   0.060602 0.904851 0.476698 -0.192360
C23   C     C_R   0.739625 0.584597 0.955574 -0.187704
C24   C     C_R   0.029358 0.908070 0.403507 0.163453
C25   C     C_R   0.653438 0.418673 0.480027 -0.223804
C26   C     C_R   0.550602 0.466319 0.573659 -0.001036
C27   C     C_R   0.444175 0.430677 0.571589 0.007450
C28   C     C_R   0.449142 0.351142 0.470333 0.010453
C29   C     C_R   0.554714 0.311082 0.378299 -0.221758
C30   C     C_R   0.651186 0.367207 0.380539 0.103448
C31   C     C_2   0.429975 0.560570 0.104623 -0.205934
C32   C     C_2   0.521349 0.610616 0.060424 -0.204078
C33   C     C_2   0.900604 0.969648 0.029861 -0.258744
C34   C     C_R   0.008327 0.707747 0.304278 -0.120875
C35   C     C_2   0.923388 0.070302 0.091888 -0.028737
C36   C     C_R   0.661992 0.490388 0.054635 -0.099528
C37   C     C_R   0.082010 0.807063 0.210205 -0.154831
C38   C     C_R   0.807100 0.482649 0.299933 0.015247
C39   C     C_R   0.935060 0.749844 0.926584 0.195086
C40   C     C_R   0.950684 0.855770 0.998296 0.131686
H1    H     H_    0.031541 0.889621 0.105893 0.148964
H2    H     H_    0.864038 0.135585 0.818723 0.099788
H3    H     H_    0.187926 0.417610 0.625741 0.139251
H4    H     H_    0.183156 0.274035 0.048403 0.111295
H5    H     H_    0.992506 0.113249 0.870563 0.098365
H6    H     H_    0.386780 0.552028 0.805307 0.124668
H7    H     H_    0.219911 0.452988 0.168396 0.098232
H8    H     H_    0.019514 0.324044 0.634249 0.106702
H9    H     H_    0.930694 0.999023 0.374193 0.135280
H10   H     H_    0.878856 0.168812 0.546914 0.121835
H11   H     H_    0.054833 0.998168 0.631453 0.117663
H12   H     H_    0.110076 0.830763 0.457386 0.117705
H13   H     H_    0.732352 0.438825 0.486402 0.148909
H14   H     H_    0.555540 0.250283 0.303315 0.152634
H15   H     H_    0.432897 0.512493 0.144756 0.126053
H16   H     H_    0.515669 0.662494 0.024776 0.124783
H17   H     H_    0.832216 0.974186 0.010633 0.153571
H18   H     H_    0.749065 0.637916 0.917886 0.134585
H19   H     H_    0.998392 0.677225 0.360023 0.141457
H20   H     H_    0.603657 0.462238 0.111876 0.104558
H21   H     H_    0.129689 0.868120 0.182291 0.114419
H22   H     H_    0.371171 0.639300 0.982436 0.097081
N1    N     N_R   0.037310 0.720000 0.995790 -0.056558
N2    N     N_R   0.946240 0.290860 0.848040 -0.034383
N3    N     N_R   0.146140 0.501160 0.788590 -0.047465
N4    N     N_R   0.025760 0.332690 0.063610 -0.048295
N5    N     N_R   0.962690 0.280000 0.004210 -0.050869
N6    N     N_R   0.209210 0.553840 0.847990 -0.042811
N7    N     N_R   0.175110 0.482040 0.063580 -0.040441
N8    N     N_R   0.996790 0.351810 0.788620 -0.036315
N9    N     N_R   0.790790 0.446160 0.152010 -0.069229
N10   N     N_R   0.824890 0.517960 0.936420 -0.042201
N11   N     N_R   0.003210 0.648190 0.211380 -0.038552
N12   N     N_R   0.774330 0.457010 0.995840 -0.041328
N13   N     N_R   0.053760 0.709140 0.151960 -0.034177
N14   N     N_R   0.853860 0.498840 0.211410 -0.066916
N15   N     N_R   0.974240 0.667310 0.936390 -0.075626
N16   N     N_R   0.225670 0.542990 0.004160 -0.042673
Ni1   Ni    Ni4+2 0.130310 0.630310 0.999970 0.210683
Ni2   Ni    Ni4+2 0.869690 0.369690 0.000030 0.216991
Ni3   Ni    Ni4+2 0.985640 0.509470 0.863740 0.199396
Ni4   Ni    Ni4+2 0.014360 0.490530 0.136260 0.210486
C41   C     C_R   0.645623 0.304555 0.154883 0.117345
C42   C     C_R   0.699821 0.195570 0.074077 -0.153446
C43   C     C_R   0.638163 0.113688 0.027209 -0.148090
C44   C     C_R   0.521262 0.139521 0.061588 -0.081606
C45   C     C_R   0.465566 0.247039 0.143378 -0.085381
C46   C     C_R   0.527370 0.328996 0.190035 -0.203304
H23   H     H_    0.788794 0.172938 0.048465 0.121561
H24   H     H_    0.680895 0.030031 0.964443 0.110850
H25   H     H_    0.474187 0.076115 0.024721 0.087910
H26   H     H_    0.374840 0.267124 0.170235 0.122953
H27   H     H_    0.484356 0.412773 0.251647 0.115134
C47   C     C_R   0.557432 0.573511 0.659719 0.135633
C48   C     C_R   0.605874 0.572108 0.723228 -0.156889
C49   C     C_R   0.598122 0.672321 0.812659 -0.146403
C50   C     C_R   0.549020 0.775369 0.835588 -0.105764
C51   C     C_R   0.505608 0.778207 0.769481 -0.127511
C52   C     C_R   0.509274 0.677534 0.681935 -0.132562
H28   H     H_    0.643277 0.492796 0.707209 0.115028
H29   H     H_    0.630076 0.670062 0.864405 0.114611
H30   H     H_    0.544537 0.852777 0.904605 0.101834
H31   H     H_    0.467575 0.857916 0.787008 0.105551
H32   H     H_    0.472691 0.679930 0.632652 0.103128
C53   C     C_R   0.350970 0.342522 0.448061 0.139899
C54   C     C_R   0.287379 0.248248 0.440011 -0.161431
C55   C     C_R   0.184359 0.251239 0.434567 -0.168441
C56   C     C_R   0.149160 0.344356 0.429681 -0.103394
C57   C     C_R   0.218318 0.433830 0.428732 -0.143342
C58   C     C_R   0.317461 0.434526 0.440865 -0.164813
H33   H     H_    0.312861 0.177266 0.445877 0.122098
H34   H     H_    0.131399 0.182060 0.437067 0.132843
H35   H     H_    0.068120 0.348785 0.427877 0.105258
H36   H     H_    0.194450 0.504184 0.421396 0.104993
H37   H     H_    0.367417 0.507417 0.446440 0.107215
C59   C     C_R   0.012213 0.087698 0.128949 0.203946
C60   C     C_R   0.128780 0.042792 0.057193 -0.163784
C61   C     C_R   0.206771 0.047558 0.096888 -0.172642
C62   C     C_R   0.168677 0.095250 0.207691 -0.087915
C63   C     C_R   0.053201 0.141053 0.278369 -0.143330
C64   C     C_R   0.976292 0.140734 0.239406 -0.201450
H38   H     H_    0.157104 0.996688 0.971229 0.124468
H39   H     H_    0.294701 0.008849 0.041760 0.111225
H40   H     H_    0.228132 0.092980 0.237681 0.124390
H41   H     H_    0.019734 0.173178 0.363797 0.114271
H42   H     H_    0.886773 0.174495 0.295508 0.120891
C65   C     C_R   0.833201 0.551209 0.390719 0.121299
C66   C     C_R   0.771171 0.658987 0.466695 -0.143514
C67   C     C_R   0.798060 0.728689 0.551235 -0.074779
C68   C     C_R   0.884650 0.689821 0.561719 -0.110940
C69   C     C_R   0.941075 0.579787 0.490723 -0.144132
C70   C     C_R   0.918192 0.511024 0.403156 -0.230854
H43   H     H_    0.704578 0.690118 0.458494 0.110146
H44   H     H_    0.753429 0.813443 0.607269 0.118625
H45   H     H_    0.910360 0.745860 0.622980 0.122522
H46   H     H_    0.004101 0.549668 0.502807 0.115528
H47   H     H_    0.965075 0.427244 0.346280 0.126726
C71   C     C_3   0.929028 0.727417 0.825041 -0.358104
C72   C     C_3   0.829557 0.798173 0.844505 -1.009893
H48   H     H_    0.753785 0.817536 0.923738 0.257484
H49   H     H_    0.858941 0.878684 0.838682 0.256024
H50   H     H_    0.801218 0.749761 0.781519 0.274711
H51   H     H_    0.012076 0.745988 0.770601 0.185697
H52   H     H_    0.921913 0.635082 0.781688 0.181972

loop_
_geom_bond_atom_site_label_1
_geom_bond_atom_site_label_2
_ccdc_geom_bond_type
C26   C47   S    
C23   H18   S    
C45   C46   A    
C8    N4    A    
N11   N13   A    
C55   H34   S    
C3    C23   A    
C48   C49   A    
C14   C31   S    
C53   C58   A    
C2    C12   A    
C66   C67   A    
C38   C65   S    
N1    Ni1   S    
C43   C44   A    
C59   C60   A    
C9    H5    S    
C26   C27   A    
C18   C24   A    
C39   N15   A    
C28   C29   A    
C25   H13   S    
C71   H51   S    
N9    N14   A    
C4    C24   S    
C72   H50   S    
C52   H32   S    
C7    N3    A    
C13   N8    A    
C51   H31   S    
C56   C57   A    
C18   C19   A    
C6    N2    A    
N8    Ni3   S    
C61   C62   A    
N7    Ni4   S    
C1    C40   A    
C33   C35   D    
C6    C15   A    
C65   C70   A    
C11   H7    S    
C31   C32   D    
C10   H6    S    
C50   H30   S    
C55   C56   A    
N2    N8    A    
N10   Ni3   S    
C16   C27   S    
C41   C46   A    
C37   N13   A    
C39   C71   S    
N12   Ni2   S    
C49   H29   S    
N2    Ni2   S    
N7    N16   A    
C47   C48   A    
C1    N1    A    
N9    Ni2   S    
C50   C51   A    
C54   H33   S    
C15   C20   S    
C72   H48   S    
C4    C34   A    
C33   C40   S    
C59   C64   A    
C42   C43   A    
N10   N12   A    
C69   H46   S    
N14   Ni4   S    
C39   C40   A    
C48   H28   S    
C38   N14   A    
C70   H47   S    
C62   H40   S    
C12   C41   S    
C56   H35   S    
C60   H38   S    
C9    N5    A    
C29   C30   A    
N4    Ni4   S    
C2    C38   A    
N3    Ni3   S    
C41   C42   A    
N15   Ni3   S    
C28   C53   S    
C62   C63   A    
N3    N6    A    
C49   C50   A    
C20   C21   A    
C35   C59   S    
C72   H49   S    
C5    C14   A    
C36   N12   A    
C57   H36   S    
C9    C17   A    
C7    C16   A    
C12   N9    A    
C7    H3    S    
C13   C15   A    
C6    H2    S    
C34   H19   S    
C22   C24   A    
C42   H23   S    
C65   C66   A    
N11   Ni4   S    
C21   H11   S    
C45   H26   S    
C63   C64   A    
C22   H12   S    
C67   C68   A    
N1    N15   A    
C1    H1    S    
C25   C30   A    
C46   H27   S    
C33   H17   S    
C44   C45   A    
C23   N10   A    
N5    Ni2   S    
C8    H4    S    
C36   H20   S    
C13   H8    S    
C37   H21   S    
C43   H24   S    
C11   N7    A    
C29   H14   S    
C10   N6    A    
C53   C54   A    
C60   C61   A    
C8    C17   A    
C2    C30   S    
C44   H25   S    
C47   C52   A    
C19   C20   A    
C68   C69   A    
C25   C26   A    
C64   H42   S    
C71   H52   S    
C66   H43   S    
N16   Ni1   S    
C19   H10   S    
C3    C36   A    
N6    Ni1   S    
C11   C14   A    
C5    H22   S    
N4    N5    A    
C61   H39   S    
C63   H41   S    
C3    C32   S    
C68   H45   S    
C71   C72   S    
C34   N11   A    
C67   H44   S    
C4    C37   A    
C51   C52   A    
C54   C55   A    
C57   C58   A    
C27   C28   A    
C10   C16   A    
C31   H15   S    
C5    N16   A    
C21   C22   A    
N13   Ni1   S    
C58   H37   S    
C32   H16   S    
C69   C70   A    
C18   H9    S    
