data_mof_unit_pretest_765.cif
_audit_creation_date              2013-03-05T16:43:04-0500
_audit_creation_method            fapswitch 2.2
_symmetry_space_group_name_H-M    P1
_symmetry_Int_Tables_number       1
_space_group_crystal_system       triclinic
_cell_length_a                    10.751291
_cell_length_b                    10.7068
_cell_length_c                    9.930067
_cell_angle_alpha                 89.230903
_cell_angle_beta                  91.478554
_cell_angle_gamma                 92.846616
_cell_volume                      1141.19412721

loop_
_atom_site_label
_atom_site_type_symbol
_atom_site_description
_atom_site_fract_x
_atom_site_fract_y
_atom_site_fract_z
_atom_type_partial_charge
O1    O     O_R   0.500020 0.316790 0.614690 -0.592065
O2    O     O_R   0.500000 0.316760 0.385350 -0.598057
C1    C     C_R   0.505738 0.259784 0.500932 0.980243
O3    O     O_R   0.314800 0.500000 0.614670 -0.626604
O4    O     O_R   0.314790 0.499960 0.385330 -0.577852
C2    C     C_R   0.257462 0.499979 0.498132 0.979970
Zn1   Zn    Zn3+2 0.500010 0.500020 0.653130 1.017408
Zn2   Zn    Zn3+2 0.499990 0.499980 0.346870 1.054645
O5    O     O_R   0.500000 0.683240 0.614650 -0.625929
O6    O     O_R   0.499980 0.683210 0.385310 -0.609517
O7    O     O_R   0.685210 0.500040 0.614670 -0.631516
O8    O     O_R   0.685200 0.500000 0.385330 -0.641263
C3    C     C_R   0.509869 0.739539 0.499291 0.910021
C4    C     C_R   0.741895 0.501833 0.501147 0.905852
C5    C     C_3   0.065406 0.403710 0.606687 0.110465
H1    H     H_    0.086111 0.446889 0.706328 0.124928
C6    C     C_3   0.922326 0.393421 0.591596 -0.478582
H2    H     H_    0.890381 0.302352 0.546311 0.242442
H3    H     H_    0.881609 0.396027 0.693471 0.215603
H4    H     H_    0.125762 0.655016 0.637327 0.187475
H5    H     H_    0.918681 0.632623 0.663692 0.153706
C7    C     C_3   0.080483 0.629393 0.538659 -0.504371
C8    C     C_3   0.059801 0.465025 0.350097 0.450525
C9    C     C_3   0.120062 0.497452 0.495100 -0.163662
C10   C     C_3   0.877721 0.501996 0.501146 -0.137845
C11   C     C_3   0.937658 0.628399 0.553951 0.153003
C12   C     C_3   0.919285 0.478196 0.355896 -0.380556
H6    H     H_    0.868284 0.393042 0.315523 0.206581
H7    H     H_    0.889387 0.554658 0.287732 0.244240
H8    H     H_    0.113116 0.704489 0.468665 0.277628
C13   C     C_R   0.561415 0.060890 0.615931 -0.038347
C14   C     C_R   0.529401 0.128621 0.500119 -0.099461
C15   C     C_R   0.530801 0.066433 0.376452 -0.087530
H9    H     H_    0.521966 0.115180 0.282222 0.250128
C16   C     C_R   0.532161 0.937238 0.374043 -0.095434
H10   H     H_    0.517977 0.890556 0.278338 0.203891
C17   C     C_R   0.539456 0.870662 0.496183 -0.082143
C18   C     C_R   0.576081 0.935372 0.612199 0.088124
C19   C     C_3   0.556122 0.916299 0.759326 0.029427
C20   C     C_3   0.534681 0.057021 0.763298 0.416995
H11   H     H_    0.471665 0.855687 0.780462 0.159925
C21   C     C_R   0.391759 0.479958 0.067564 0.164237
N1    N     N_R   0.499150 0.499140 0.142800 -0.111804
C22   C     C_R   0.605743 0.529126 0.074176 -0.022028
H12   H     H_    0.691771 0.551309 0.129335 0.162165
C23   C     C_R   0.605879 0.528424 0.930794 -0.013878
H13   H     H_    0.692040 0.549424 0.879452 0.168216
N2    N     N_R   0.499150 0.499180 0.857150 -0.110668
C24   C     C_R   0.391557 0.482540 0.925080 0.125126
C25   C     C_3   0.306559 0.370481 0.911887 -0.409753
C26   C     C_3   0.310405 0.362365 0.063666 0.102539
H14   H     H_    0.213781 0.393818 0.871399 0.194532
H15   H     H_    0.349899 0.293893 0.859527 0.276268
H16   H     H_    0.218444 0.372252 0.105056 0.196617
N3    N     N_R   0.885444 0.738565 0.487975 0.220663
O9    O     O_R   0.829225 0.818055 0.559845 -0.336938
O10   O     O_R   0.906262 0.765891 0.362218 -0.321784
Br1   Br    Br    0.705164 0.860328 0.852526 -0.325699
N4    N     N_R   0.404713 0.075309 0.794866 0.177828
O11   O     O_R   0.370194 0.054721 0.917971 -0.283201
O12   O     O_R   0.319370 0.070030 0.699666 -0.311328
Br2   Br    Br    0.654819 0.165405 0.862269 -0.316569
N5    N     N_R   0.115799 0.278269 0.614306 0.250439
O13   O     O_R   0.219988 0.254152 0.558790 -0.327885
O14   O     O_R   0.067654 0.196251 0.698485 -0.267113
N6    N     N_R   0.373126 0.253057 0.114564 0.254439
O15   O     O_R   0.488748 0.237898 0.086257 -0.366561
O16   O     O_R   0.310061 0.164379 0.177239 -0.280017
N7    N     N_R   0.105323 0.545275 0.236831 0.204336
O17   O     O_R   0.058779 0.524899 0.116232 -0.397789
O18   O     O_R   0.173415 0.647746 0.255376 -0.353959
Br3   Br    Br    0.081907 0.289551 0.304174 -0.332924

loop_
_geom_bond_atom_site_label_1
_geom_bond_atom_site_label_2
_geom_bond_distance
_ccdc_geom_bond_type
C6    H2    1.114199 S    
O4    Zn2   2.037080 S    
C25   H14   1.104719 S    
H5    C11   1.115760 S    
N5    O14   1.302029 A    
C5    C6    1.540334 S    
C17   C18   1.390400 A    
C8    C12   1.526881 S    
C12   H7    1.109824 S    
C7    H8    1.105542 S    
C8    N7    1.484432 S    
N6    O16   1.300193 A    
C13   C14   1.396023 A    
C13   C18   1.361976 A    
C21   C26   1.497302 S    
Zn2   O8    2.017828 S    
C26   H16   1.090958 S    
C2    C9    1.475657 S    
C14   C15   1.405528 A    
N3    O9    1.299477 A    
O2    C1    1.294038 A    
C10   C11   1.561029 S    
C6    C10   1.547001 S    
N4    O11   1.299510 A    
C19   H11   1.112364 S    
C20   N4    1.463062 S    
N6    O15   1.299962 A    
Zn1   N2    2.026089 S    
Zn1   O7    2.037077 S    
O4    C2    1.292374 A    
O3    Zn1   2.017830 S    
Zn2   N1    2.026355 S    
O3    C2    1.297069 A    
C5    C9    1.589241 S    
C6    H3    1.113837 S    
C11   N3    1.470267 S    
O8    C4    1.287572 A    
C25   C26   1.508136 S    
C23   N2    1.369916 A    
N7    O17   1.302834 A    
N3    O10   1.301246 A    
N1    C22   1.370648 A    
C1    C14   1.439740 S    
O7    C4    1.294713 A    
C7    C9    1.565057 S    
C15   H9    1.069677 S    
N4    O12   1.300106 A    
C25   H15   1.105335 S    
C10   C12   1.549005 S    
C21   N1    1.367287 A    
H4    C7    1.114248 S    
C8    C9    1.598907 S    
C5    H1    1.110389 S    
N7    O18   1.300860 A    
C19   C20   1.536663 S    
C20   Br2   1.948602 S    
C4    C10   1.460216 S    
C16   C17   1.400973 A    
Zn2   O6    2.003626 S    
C24   C25   1.476792 S    
C7    C11   1.546425 S    
C12   H6    1.114199 S    
Zn1   O5    1.993531 S    
C5    N5    1.473270 S    
C23   H13   1.081300 S    
N2    C24   1.356991 A    
O5    C3    1.291590 A    
C21   C24   1.414723 A    
C15   C16   1.384605 A    
C13   C20   1.498218 S    
O1    Zn1   2.003626 S    
C19   Br1   1.946090 S    
C3    C17   1.424105 S    
C8    Br3   1.966510 S    
O6    C3    1.289128 A    
O2    Zn2   1.993531 S    
C22   H12   1.080465 S    
C16   H10   1.083486 S    
C22   C23   1.423950 A    
N5    O13   1.299915 A    
O1    C1    1.295443 A    
C26   N6    1.457671 S    
C18   C19   1.491990 S    
