data_mof_unit_pretest_1071.cif
_audit_creation_date              2012-12-10T20:21:40-0500
_audit_creation_method            fapswitch 2.2
_symmetry_space_group_name_H-M    P1
_symmetry_Int_Tables_number       1
_space_group_crystal_system       triclinic
_cell_length_a                    18.934275
_cell_length_b                    18.506036
_cell_length_c                    8.880347
_cell_angle_alpha                 89.841291
_cell_angle_beta                  90.244181
_cell_angle_gamma                 90.733943
_cell_volume                      3111.36413693

loop_
_atom_site_label
_atom_site_type_symbol
_atom_type_description
_atom_site_fract_x
_atom_site_fract_y
_atom_site_fract_z
_atom_type_partial_charge
C1    C     C_R   0.365025 0.499550 0.497278 0.847825
C2    C     C_R   0.547232 0.198756 0.591927 -0.420230
C3    C     C_R   0.496567 0.841520 0.508556 0.013990
C4    C     C_R   0.498630 0.158863 0.504745 0.023792
C5    C     C_R   0.433145 0.961754 0.501806 -0.192696
C6    C     C_R   0.560984 0.038566 0.517276 -0.194869
C7    C     C_R   0.560442 0.962647 0.518096 -0.196546
C8    C     C_R   0.433686 0.037762 0.501062 -0.194092
C9    C     C_R   0.497654 0.077483 0.508289 0.184586
C10   C     C_R   0.496542 0.922889 0.510145 0.182791
C11   C     C_R   0.500314 0.500045 0.218547 0.919553
C12   C     C_R   0.634742 0.500228 0.497030 0.846455
C13   C     C_R   0.500166 0.499926 0.781463 0.942008
C14   C     C_1   0.500594 0.500005 0.065411 -0.231782
C15   C     C_1   0.500488 0.499840 0.934597 -0.193069
C16   C     C_R   0.758569 0.539143 0.539580 -0.245561
C17   C     C_R   0.247334 0.555822 0.518260 -0.218959
C18   C     C_R   0.259017 0.440676 0.390734 -0.233321
C19   C     C_R   0.728562 0.460321 0.329890 -0.220432
C20   C     C_R   0.828967 0.538301 0.496046 -0.112137
C21   C     C_R   0.175427 0.555170 0.485439 -0.148553
C22   C     C_R   0.187792 0.440888 0.355006 -0.136540
C23   C     C_R   0.548338 0.726329 0.586260 0.571430
C24   C     C_R   0.798675 0.459960 0.285745 -0.148043
C25   C     C_R   0.848988 0.498342 0.369632 0.275322
C26   C     C_R   0.145563 0.497624 0.403587 0.245771
C27   C     C_R   0.708561 0.499747 0.456989 -0.031801
C28   C     C_R   0.289164 0.498143 0.472066 -0.034220
C29   C     C_R   0.962687 0.552639 0.287482 0.313673
C30   C     C_R   0.030327 0.433447 0.419569 0.310408
C31   C     C_R   0.036310 0.552941 0.302111 0.353054
C32   C     C_R   0.958055 0.428726 0.383719 0.339078
C33   C     C_R   0.069588 0.494678 0.373939 -0.254515
C34   C     C_R   0.453013 0.274101 0.410157 0.581680
C35   C     C_R   0.923777 0.491690 0.336426 -0.294937
C36   C     C_3   0.899945 0.604645 0.096625 0.083338
C37   C     C_3   0.876827 0.677553 0.033969 -0.291076
C38   C     C_3   0.846022 0.669847 0.875807 -1.026173
C39   C     C_3   0.041728 0.377102 0.650301 0.134351
C40   C     C_3   0.093474 0.421125 0.747593 -0.357713
C41   C     C_3   0.077829 0.411688 0.915131 -1.009585
C42   C     C_3   0.083370 0.612836 0.098857 0.125836
C43   C     C_3   0.160107 0.630503 0.059514 -0.334668
C44   C     C_3   0.171059 0.631833 0.889306 -1.001985
C45   C     C_R   0.452180 0.725594 0.412931 0.536847
C46   C     C_3   0.939907 0.308262 0.326601 0.125057
C47   C     C_3   0.910007 0.313296 0.165975 -0.401037
C48   C     C_3   0.937472 0.252536 0.067180 -0.974614
C49   C     C_3   0.666701 0.715808 0.660555 0.066752
C50   C     C_3   0.695277 0.720814 0.498348 -0.391551
C51   C     C_3   0.773800 0.740343 0.496836 -0.919295
C52   C     C_3   0.388889 0.286366 0.182884 0.043936
C53   C     C_3   0.453653 0.280437 0.079982 -0.369927
C54   C     C_3   0.431943 0.256642 0.922126 -0.900659
C55   C     C_3   0.416789 0.700796 0.172145 0.088727
C56   C     C_R   0.548083 0.275207 0.587097 0.540501
C57   C     C_3   0.370401 0.650403 0.076865 -0.318249
C58   C     C_3   0.382925 0.662778 0.908943 -0.942781
C59   C     C_3   0.662569 0.296188 0.675577 0.093280
C60   C     C_3   0.687081 0.270512 0.830875 -0.361604
C61   C     C_3   0.765631 0.253226 0.831698 -0.972830
C62   C     C_R   0.545303 0.802776 0.595287 -0.405380
C63   C     C_R   0.450850 0.197334 0.414542 -0.404911
C64   C     C_R   0.449095 0.801852 0.418418 -0.392421
H1    H     H_    0.743408 0.568764 0.638781 0.142003
H2    H     H_    0.412746 0.167138 0.348708 0.152550
H3    H     H_    0.410076 0.829816 0.351579 0.157433
H4    H     H_    0.582521 0.170778 0.667647 0.161879
H5    H     H_    0.382805 0.933419 0.497911 0.137495
H6    H     H_    0.611381 0.066833 0.520523 0.132275
H7    H     H_    0.610486 0.935027 0.521808 0.133025
H8    H     H_    0.383686 0.065415 0.496845 0.135575
H9    H     H_    0.852790 0.568475 0.102525 0.145763
H10   H     H_    0.938821 0.580777 0.017609 0.104323
H11   H     H_    0.836273 0.700808 0.109221 0.222149
H12   H     H_    0.270110 0.600766 0.580406 0.165808
H13   H     H_    0.922944 0.715286 0.030346 0.221696
H14   H     H_    0.886755 0.649833 0.797112 0.267015
H15   H     H_    0.827751 0.723308 0.835476 0.270391
H16   H     H_    0.800393 0.631548 0.876549 0.259289
H17   H     H_    0.042330 0.319931 0.688730 0.161479
H18   H     H_    0.986847 0.396414 0.668405 0.148373
H19   H     H_    0.148343 0.403543 0.725089 0.244880
H20   H     H_    0.089353 0.479240 0.717846 0.208718
H21   H     H_    0.024322 0.431971 0.941519 0.254798
H22   H     H_    0.117419 0.442615 0.982347 0.266767
H23   H     H_    0.290797 0.396469 0.351315 0.193031
H24   H     H_    0.080974 0.353851 0.947824 0.271592
H25   H     H_    0.049124 0.655554 0.051084 0.165444
H26   H     H_    0.068569 0.560539 0.043857 0.106485
H27   H     H_    0.174985 0.684138 0.106885 0.230955
H28   H     H_    0.194995 0.589080 0.110369 0.226727
H29   H     H_    0.160767 0.577384 0.841210 0.269239
H30   H     H_    0.226347 0.647925 0.863912 0.275010
H31   H     H_    0.135242 0.671377 0.835267 0.268847
H32   H     H_    0.919029 0.257875 0.379218 0.151870
H33   H     H_    0.998198 0.302240 0.322752 0.174848
H34   H     H_    0.689698 0.430517 0.264080 0.140090
H35   H     H_    0.851445 0.309539 0.169873 0.226952
H36   H     H_    0.925594 0.365785 0.114056 0.211695
H37   H     H_    0.996080 0.254537 0.062622 0.263082
H38   H     H_    0.916683 0.258768 0.950876 0.273549
H39   H     H_    0.919952 0.199216 0.112148 0.266473
H40   H     H_    0.700991 0.678943 0.725628 0.168355
H41   H     H_    0.671536 0.768462 0.719321 0.120722
H42   H     H_    0.687234 0.668432 0.439976 0.253222
H43   H     H_    0.666515 0.762861 0.434081 0.203831
H44   H     H_    0.783275 0.792760 0.554590 0.256377
H45   H     H_    0.868162 0.567177 0.562605 0.128898
H46   H     H_    0.792226 0.745146 0.378663 0.268956
H47   H     H_    0.804814 0.697688 0.553780 0.276880
H48   H     H_    0.351743 0.324602 0.128730 0.164966
H49   H     H_    0.358931 0.234629 0.191212 0.125699
H50   H     H_    0.481216 0.333664 0.072780 0.251132
H51   H     H_    0.491255 0.240401 0.126105 0.206634
H52   H     H_    0.402346 0.204468 0.926489 0.253709
H53   H     H_    0.479992 0.249115 0.853843 0.283059
H54   H     H_    0.398693 0.298325 0.867524 0.264676
H55   H     H_    0.473240 0.691444 0.143290 0.145939
H56   H     H_    0.142971 0.598903 0.525163 0.168184
H57   H     H_    0.402924 0.757402 0.143122 0.124494
H58   H     H_    0.382028 0.593345 0.105469 0.229836
H59   H     H_    0.313990 0.660122 0.102629 0.222019
H60   H     H_    0.363831 0.716950 0.874931 0.258851
H61   H     H_    0.353992 0.620986 0.842739 0.257953
H62   H     H_    0.440035 0.659246 0.882772 0.290185
H63   H     H_    0.693684 0.345320 0.644762 0.180314
H64   H     H_    0.674708 0.254850 0.588440 0.110967
H65   H     H_    0.677079 0.313417 0.915281 0.229686
H66   H     H_    0.656531 0.221433 0.864232 0.215132
H67   H     H_    0.165426 0.396648 0.290015 0.155808
H68   H     H_    0.776930 0.210006 0.748995 0.266520
H69   H     H_    0.781295 0.234158 0.945534 0.270434
H70   H     H_    0.797397 0.302276 0.803481 0.271753
H71   H     H_    0.813651 0.430123 0.186720 0.118183
H72   H     H_    0.579699 0.832267 0.671181 0.155307
N1    N     N_R   0.500000 0.689440 0.500000 -0.158764
N2    N     N_R   0.500000 0.310560 0.500000 -0.152580
O1    O     O_R   0.398180 0.560840 0.499960 -0.578057
O2    O     O_3   0.063365 0.378190 0.497642 -0.653238
O3    O     O_3   0.075772 0.612662 0.257410 -0.612987
O4    O     O_3   0.918333 0.367110 0.416988 -0.636236
O5    O     O_3   0.597067 0.686546 0.668146 -0.614974
O6    O     O_3   0.405954 0.315272 0.326250 -0.625236
O7    O     O_3   0.404417 0.686472 0.326336 -0.609406
O8    O     O_3   0.590609 0.315861 0.683091 -0.613883
O9    O     O_R   0.601820 0.439160 0.500040 -0.601996
O10   O     O_R   0.601820 0.560840 0.500040 -0.589402
O11   O     O_R   0.398180 0.439160 0.499960 -0.583157
O12   O     O_R   0.500000 0.560800 0.285330 -0.608475
O13   O     O_R   0.500000 0.439200 0.714670 -0.579398
O14   O     O_R   0.500000 0.560800 0.714670 -0.596105
O15   O     O_R   0.500000 0.439200 0.285330 -0.601946
O16   O     O_3   0.929470 0.615217 0.241499 -0.605190
Zn1   Zn    Zn3+2 0.500000 0.581210 0.500000 0.998597
Zn2   Zn    Zn3+2 0.500000 0.418790 0.500000 1.002902

loop_
_geom_bond_atom_site_label_1
_geom_bond_atom_site_label_2
_ccdc_geom_bond_type
C7    C10   A    
C21   C26   A    
C55   H57   S    
C22   H67   S    
C40   H20   S    
C49   H40   S    
C36   O16   S    
C46   O4    S    
C55   H55   S    
C52   H49   S    
C52   C53   S    
C41   H22   S    
C4    C63   A    
C34   O6    S    
C52   O6    S    
C45   O7    S    
C12   O9    A    
C36   C37   S    
O11   Zn2   S    
C21   H56   S    
C2    H4    S    
C7    H7    S    
C11   C14   S    
C55   O7    S    
C57   H59   S    
C20   C25   A    
C52   H48   S    
C59   H63   S    
C47   H35   S    
N1    Zn1   S    
C62   H72   S    
C5    H5    S    
C44   H29   S    
C11   O12   A    
C61   H68   S    
C57   H58   S    
C39   O2    S    
C23   C62   A    
C51   H44   S    
C54   H52   S    
C17   H12   S    
C31   C33   A    
C1    O11   A    
O10   Zn1   S    
C19   C27   A    
C32   O4    S    
C1    O1    A    
C16   C27   A    
C37   H11   S    
C63   H2    S    
C59   C60   S    
C40   H19   S    
C23   O5    S    
C6    C9    A    
C13   O14   A    
C19   H34   S    
C61   H70   S    
C8    H8    S    
C30   O2    S    
C12   C27   S    
C61   H69   S    
C32   C35   A    
C18   C28   A    
C24   C25   A    
C39   H17   S    
C60   H66   S    
C39   C40   S    
C8    C9    A    
C49   H41   S    
C38   H14   S    
C59   H64   S    
C3    C64   A    
C48   H39   S    
C37   H13   S    
C34   N2    A    
C43   H27   S    
C47   H36   S    
C60   C61   S    
C42   H26   S    
C31   O3    S    
C2    C4    A    
C43   C44   S    
C64   H3    S    
C37   C38   S    
C1    C28   S    
C56   N2    A    
C26   C33   S    
C47   C48   S    
O14   Zn1   S    
O1    Zn1   S    
C16   C20   A    
C48   H38   S    
C42   O3    S    
C45   N1    A    
C50   C51   S    
O13   Zn2   S    
O15   Zn2   S    
O9    Zn2   S    
C13   O13   A    
C36   H10   S    
C25   C35   S    
C24   H71   S    
C40   C41   S    
C46   H33   S    
C58   H62   S    
C51   H46   S    
O12   Zn1   S    
C55   C57   S    
C22   C26   A    
C50   H43   S    
C42   C43   S    
C54   H54   S    
C53   H50   S    
C3    C62   A    
N2    Zn2   S    
C6    H6    S    
C41   H24   S    
C46   C47   S    
C51   H47   S    
C30   C33   A    
C18   C22   A    
C17   C28   A    
C23   N1    A    
C43   H28   S    
C39   H18   S    
C60   H65   S    
C5    C8    A    
C53   C54   S    
C6    C7    A    
C41   H21   S    
C29   C35   A    
C45   C64   A    
C58   H60   S    
C18   H23   S    
C42   H25   S    
C12   O10   A    
C13   C15   S    
C19   C24   A    
C5    C10   A    
C29   C31   A    
C44   H31   S    
C2    C56   A    
C30   C32   A    
C57   C58   S    
C38   H16   S    
C3    C10   S    
C48   H37   S    
C49   O5    S    
C34   C63   A    
C56   O8    S    
C17   C21   A    
C44   H30   S    
C36   H9    S    
C11   O15   A    
C20   H45   S    
C59   O8    S    
C46   H32   S    
C58   H61   S    
C49   C50   S    
C38   H15   S    
C54   H53   S    
C50   H42   S    
C14   C15   T    
C16   H1    S    
C4    C9    S    
C53   H51   S    
C29   O16   S    
