data_mof_unit_pretest_1338.cif
_audit_creation_date              2012-12-10T20:42:38-0500
_audit_creation_method            fapswitch 2.2
_symmetry_space_group_name_H-M    P1
_symmetry_Int_Tables_number       1
_space_group_crystal_system       triclinic
_cell_length_a                    8.907639
_cell_length_b                    10.688376
_cell_length_c                    9.889239
_cell_angle_alpha                 89.990418
_cell_angle_beta                  90.028578
_cell_angle_gamma                 89.948545
_cell_volume                      941.536084132

loop_
_atom_site_label
_atom_site_type_symbol
_atom_type_description
_atom_site_fract_x
_atom_site_fract_y
_atom_site_fract_z
_atom_type_partial_charge
C1    C     C_R   0.502922 0.260123 0.500051 0.928236
C2    C     C_R   0.565526 0.935265 0.383741 -0.202956
C3    C     C_R   0.523410 0.871349 0.501587 -0.058986
C4    C     C_R   0.505261 0.936045 0.622520 0.059672
C5    C     C_3   0.384666 0.926350 0.727112 -0.484035
C6    C     C_3   0.379490 0.068402 0.725988 0.213947
C7    C     C_R   0.368205 0.501378 0.071104 0.217505
C8    C     C_R   0.630436 0.508686 0.071828 -0.135693
C9    C     C_R   0.630436 0.508686 0.928225 -0.127597
C10   C     C_R   0.368189 0.501487 0.928769 0.197210
C11   C     C_3   0.247245 0.405334 0.923198 -0.456317
C12   C     C_R   0.218786 0.499810 0.499969 0.966888
C13   C     C_3   0.247313 0.405195 0.076751 -0.505560
C14   C     C_R   0.503754 0.739851 0.500062 0.868880
C15   C     C_R   0.781234 0.499896 0.500042 0.932253
C16   C     C_1   0.065436 0.499675 0.499989 -0.178800
C17   C     C_1   0.934607 0.499715 0.500058 -0.186943
C18   C     C_R   0.501693 0.063440 0.621908 0.053217
C19   C     C_R   0.520601 0.128429 0.501178 -0.050435
C20   C     C_R   0.564542 0.064751 0.383660 -0.206417
H1    H     H_    0.589808 0.114042 0.290689 0.168715
H2    H     H_    0.286465 0.315746 0.878604 0.240846
H3    H     H_    0.141850 0.442958 0.120902 0.208521
H4    H     H_    0.286450 0.315402 0.121453 0.222358
H5    H     H_    0.590767 0.886085 0.290694 0.168849
H6    H     H_    0.281491 0.880182 0.688059 0.231883
H7    H     H_    0.427885 0.887305 0.823803 0.177225
H8    H     H_    0.417041 0.111480 0.822516 0.110769
H9    H     H_    0.736085 0.513901 0.125300 0.157509
H10   H     H_    0.736082 0.513887 0.874838 0.159473
H11   H     H_    0.141723 0.443025 0.878985 0.212769
N1    N     N_R   0.499010 0.499140 0.142800 -0.107503
N2    N     N_R   0.499010 0.499180 0.857150 -0.108620
O1    O     O_R   0.500020 0.316790 0.614690 -0.607028
O2    O     O_R   0.500000 0.316760 0.385350 -0.627819
O3    O     O_R   0.285350 0.500020 0.614650 -0.607176
O4    O     O_R   0.285340 0.499980 0.385310 -0.619182
O5    O     O_R   0.500000 0.683240 0.614650 -0.617272
O6    O     O_R   0.499980 0.683210 0.385310 -0.624207
O7    O     O_R   0.714660 0.500020 0.614690 -0.624768
O8    O     O_R   0.714650 0.499980 0.385350 -0.630073
Zn1   Zn    Zn3+2 0.500010 0.500020 0.653130 0.962393
Zn2   Zn    Zn3+2 0.499990 0.499980 0.346870 0.948999
Cl1   Cl    Cl    0.205347 0.127888 0.662107 -0.640730

loop_
_geom_bond_atom_site_label_1
_geom_bond_atom_site_label_2
_ccdc_geom_bond_type
O4    Zn2   S    
C7    C10   A    
C12   O3    A    
O2    Zn2   S    
C11   H2    S    
O3    Zn1   S    
C19   C20   A    
O1    Zn1   S    
C7    C13   S    
C4    C18   A    
O7    Zn1   S    
C2    C3    A    
C11   H11   S    
C6    Cl1   S    
C9    N2    A    
C4    C5    S    
O8    Zn2   S    
C15   O8    A    
C2    H5    S    
C3    C14   S    
C9    H10   S    
N2    Zn1   S    
N1    Zn2   S    
C1    O1    A    
O5    Zn1   S    
C10   N2    A    
C5    C6    S    
C6    C18   S    
C15   O7    A    
C1    C19   S    
C14   O5    A    
C10   C11   S    
C8    H9    S    
C2    C20   A    
C5    H6    S    
C8    N1    A    
C12   C16   S    
C11   C13   S    
C20   H1    S    
C13   H3    S    
C18   C19   A    
C12   O4    A    
C15   C17   S    
C1    O2    A    
C16   C17   T    
O6    Zn2   S    
C7    N1    A    
C14   O6    A    
C5    H7    S    
C6    H8    S    
C3    C4    A    
C13   H4    S    
C8    C9    A    
