data_mof_unit_pretest_629.cif
_audit_creation_date              2012-12-10T17:34:29-0500
_audit_creation_method            fapswitch 2.2
_symmetry_space_group_name_H-M    P1
_symmetry_Int_Tables_number       1
_space_group_crystal_system       triclinic
_cell_length_a                    12.410147
_cell_length_b                    13.357948
_cell_length_c                    14.32161
_cell_angle_alpha                 76.753182
_cell_angle_beta                  101.005396
_cell_angle_gamma                 116.848389
_cell_volume                      2051.39713056

loop_
_atom_site_label
_atom_site_type_symbol
_atom_type_description
_atom_site_fract_x
_atom_site_fract_y
_atom_site_fract_z
_atom_type_partial_charge
C1    C     C_R   0.855599 0.287301 0.510555 0.774915
C2    C     C_1   0.998826 0.500840 0.228663 -0.139062
C3    C     C_R   0.285423 0.020800 0.392850 -0.172430
C4    C     C_R   0.231999 0.833675 0.487504 -0.109598
C5    C     C_R   0.812513 0.105581 0.617209 -0.192010
C6    C     C_R   0.726376 0.012177 0.668582 -0.140879
C7    C     C_R   0.604240 0.976023 0.635237 -0.118317
C8    C     C_R   0.566474 0.021887 0.542488 0.103615
C9    C     C_R   0.654337 0.120836 0.492448 0.113116
C10   C     C_R   0.443016 0.978788 0.501277 0.006172
C11   C     C_R   0.407924 0.049824 0.424112 0.157851
C12   C     C_R   0.000758 0.500093 0.668646 0.846396
C13   C     C_R   0.495645 0.146943 0.376061 -0.150568
C14   C     C_R   0.617694 0.177317 0.405746 -0.144887
C15   C     C_R   0.354588 0.866220 0.529133 -0.068219
C16   C     C_R   0.197755 0.915109 0.427390 -0.186764
C17   C     C_R   0.775807 0.166343 0.534150 -0.100791
C18   C     C_R   0.377396 0.413357 0.691806 -0.089688
C19   C     C_R   0.751893 0.637615 0.366800 0.197499
C20   C     C_R   0.668481 0.684208 0.348606 -0.277609
C21   C     C_R   0.578166 0.645772 0.407986 -0.138754
C22   C     C_R   0.565078 0.555648 0.483889 0.018152
C23   C     C_R   0.145612 0.712613 0.492633 0.837979
C24   C     C_R   0.661946 0.521697 0.510778 0.189813
C25   C     C_R   0.460874 0.501771 0.536911 -0.064639
C26   C     C_R   0.476647 0.456094 0.635607 0.007313
C27   C     C_R   0.587358 0.446233 0.670745 -0.120283
C28   C     C_R   0.659733 0.451981 0.602720 -0.089709
C29   C     C_R   0.341992 0.490585 0.495397 0.172226
C30   C     C_R   0.262411 0.396716 0.645423 0.011313
C31   C     C_R   0.999694 0.500532 0.331297 0.813187
C32   C     C_1   0.001806 0.500055 0.771252 -0.103735
C33   C     C_1   0.001567 0.500150 0.856701 0.057554
C34   C     C_1   0.000648 0.500389 0.957258 0.055608
C35   C     C_1   0.999796 0.500629 0.042587 0.037968
C36   C     C_1   0.999015 0.500843 0.143179 0.026267
Cu1   Cu    Cu3+1 0.098280 0.475420 0.520190 0.989934
Cu2   Cu    Cu3+1 0.901720 0.524580 0.479810 0.995961
H1    H     H_    0.104329 0.893787 0.399328 0.218124
H2    H     H_    0.520949 0.689695 0.395202 0.199228
H3    H     H_    0.672395 0.749937 0.286911 0.160935
H4    H     H_    0.257754 0.078053 0.338226 0.158246
H5    H     H_    0.905656 0.138772 0.649569 0.170025
H6    H     H_    0.541005 0.915589 0.685372 0.154138
H7    H     H_    0.753538 0.972967 0.738129 0.167323
H8    H     H_    0.186657 0.361120 0.688179 0.161685
N1    N     N_R   0.246290 0.438200 0.550780 -0.228560
N2    N     N_R   0.754310 0.561180 0.449760 -0.241520
O1    O     O_R   0.972510 0.318130 0.525390 -0.578894
O2    O     O_R   0.806530 0.359650 0.491290 -0.567568
O3    O     O_R   0.083010 0.479240 0.641000 -0.584584
O4    O     O_R   0.917030 0.520750 0.606900 -0.555690
O5    O     O_R   0.193470 0.640350 0.508710 -0.533508
O6    O     O_R   0.027490 0.681870 0.474610 -0.563073
O7    O     O_R   0.082970 0.479250 0.393100 -0.542385
O8    O     O_R   0.916990 0.520760 0.359000 -0.562811
C37   C     C_2   0.612955 0.397611 0.771972 0.927096
O9    O     O_2   0.701171 0.455467 0.821737 -0.553663
O10   O     O_R   0.541009 0.284113 0.807928 -0.740416
H9    H     H_    0.569216 0.260511 0.877107 0.343153
C38   C     C_2   0.389545 0.398073 0.798462 0.846873
O11   O     O_2   0.316921 0.312780 0.844276 -0.571846
O12   O     O_R   0.480179 0.484241 0.846209 -0.740603
H10   H     H_    0.478402 0.464739 0.918773 0.350500
C39   C     C_2   0.316613 0.521823 0.390740 0.854492
O13   O     O_2   0.309050 0.460040 0.336325 -0.594478
O14   O     O_R   0.304342 0.623044 0.353961 -0.755297
H11   H     H_    0.288891 0.635687 0.281043 0.323168
C40   C     C_2   0.832759 0.673493 0.291148 0.884556
O15   O     O_2   0.797528 0.624639 0.221182 -0.587471
O16   O     O_R   0.944637 0.767806 0.295200 -0.786355
H12   H     H_    0.990862 0.784612 0.238056 0.326383
C41   C     C_2   0.665843 0.342920 0.612354 0.926427
O17   O     O_2   0.591160 0.272829 0.563651 -0.592224
O18   O     O_R   0.742334 0.312847 0.686546 -0.773550
H13   H     H_    0.726884 0.230478 0.693392 0.327618
H14   H     H_    0.469882 0.197754 0.313415 0.153065
C42   C     C_2   0.391353 0.778239 0.590226 0.851713
O19   O     O_2   0.467845 0.758251 0.565564 -0.584575
O20   O     O_R   0.336033 0.716743 0.674540 -0.764608
H15   H     H_    0.366941 0.657998 0.708945 0.345278
H16   H     H_    0.682952 0.249505 0.363142 0.148754

loop_
_geom_bond_atom_site_label_1
_geom_bond_atom_site_label_2
_ccdc_geom_bond_type
C3    H4    S    
C6    H7    S    
C41   O17   D    
C35   C36   S    
C18   C26   A    
C9    C14   A    
C20   H3    S    
C7    C8    A    
C26   C27   A    
C29   N1    A    
C10   C15   A    
C5    C6    A    
Cu1   O3    S    
C42   O20   S    
C37   O10   S    
C15   C42   S    
Cu2   O4    S    
C40   O16   S    
C34   C35   T    
C38   O12   S    
C19   C20   A    
C8    C9    A    
C39   O14   S    
C22   C25   A    
C18   C30   A    
C31   O8    A    
Cu1   N1    S    
C1    O2    A    
Cu2   N2    S    
Cu1   O5    S    
C5    H5    S    
O10   H9    S    
C13   C14   A    
C12   C32   S    
C41   O18   S    
C38   O11   D    
C28   C41   S    
C12   O4    A    
C23   O5    A    
C25   C29   A    
C13   H14   S    
O14   H11   S    
C24   N2    A    
C30   N1    A    
C27   C37   S    
C4    C23   S    
C42   O19   D    
C25   C26   A    
C2    C31   S    
C4    C16   A    
O18   H13   S    
Cu1   Cu2   S    
Cu1   O1    S    
Cu2   O6    S    
C33   C34   S    
C7    H6    S    
C5    C17   A    
C29   C39   S    
C9    C17   A    
C22   C24   A    
C19   C40   S    
C14   H16   S    
C12   O3    A    
C23   O6    A    
C2    C36   T    
C19   N2    A    
C30   H8    S    
C24   C28   A    
O20   H15   S    
C18   C38   S    
C6    C7    A    
Cu2   O2    S    
C1    C17   S    
C32   C33   T    
C4    C15   A    
O16   H12   S    
C11   C13   A    
C37   O9    D    
C21   H2    S    
C40   O15   D    
C3    C11   A    
C10   C11   A    
C16   H1    S    
O12   H10   S    
Cu1   O7    S    
Cu2   O8    S    
C20   C21   A    
C8    C10   A    
C39   O13   D    
C27   C28   A    
C31   O7    A    
C21   C22   A    
C1    O1    A    
C3    C16   A    
