data_mof_unit_pretest_664.cif
_audit_creation_date              2012-10-26T17:13:09-0400
_audit_creation_method            fapswitch 2.2
_symmetry_space_group_name_H-M    P1
_symmetry_Int_Tables_number       1
_space_group_crystal_system       triclinic
_cell_length_a                    16.835361
_cell_length_b                    16.783349
_cell_length_c                    16.863146
_cell_angle_alpha                 67.613976
_cell_angle_beta                  67.46737
_cell_angle_gamma                 67.578936
_cell_volume                      3911.62777073

loop_
_atom_site_label
_atom_site_type_symbol
_atom_type_description
_atom_site_fract_x
_atom_site_fract_y
_atom_site_fract_z
_atom_type_partial_charge
C1    C     C_R   0.322557 0.963646 0.446599 0.029951
C2    C     C_R   0.675372 0.049460 0.546478 0.030468
C3    C     C_R   0.959099 0.449220 0.322852 0.029583
C4    C     C_R   0.040431 0.551270 0.677012 0.032121
C5    C     C_R   0.446299 0.322234 0.965499 0.028421
C6    C     C_R   0.545254 0.674538 0.053214 0.030424
C7    C     C_R   0.550083 0.030738 0.681156 0.030508
C8    C     C_R   0.431924 0.011449 0.306569 0.028292
C9    C     C_R   0.679796 0.548502 0.036168 0.029852
C10   C     C_R   0.305651 0.431007 0.013933 0.026311
C11   C     C_R   0.988990 0.691177 0.569750 0.027485
C12   C     C_R   0.010226 0.309366 0.430334 0.026710
C13   C     C_R   0.449516 0.001708 0.447245 0.027343
C14   C     C_R   0.542797 0.024823 0.541397 0.026956
C15   C     C_R   0.994021 0.452172 0.450320 0.026912
C16   C     C_R   0.005323 0.548521 0.549528 0.026875
C17   C     C_R   0.446113 0.447937 0.006322 0.026444
C18   C     C_R   0.539879 0.540740 0.030881 0.027102
C19   C     C_R   0.013490 0.831754 0.569796 0.789973
C20   C     C_R   0.986289 0.168376 0.430246 0.787145
C21   C     C_R   0.828725 0.565675 0.025003 0.790718
C22   C     C_R   0.167975 0.430183 0.986641 0.793770
C23   C     C_R   0.565962 0.024016 0.828986 0.790517
C24   C     C_R   0.430287 0.986342 0.168057 0.790637
C25   C     C_R   0.434740 0.171630 0.973194 0.767409
C26   C     C_R   0.564399 0.828064 0.028608 0.792930
C27   C     C_R   0.972449 0.435058 0.171619 0.766717
C28   C     C_R   0.027410 0.565028 0.828372 0.795302
C29   C     C_R   0.171577 0.973203 0.434665 0.778207
C30   C     C_R   0.828131 0.028026 0.564698 0.775361
C31   C     C_R   0.401754 0.991515 0.400201 0.074010
C32   C     C_R   0.590044 0.034113 0.589929 0.070266
C33   C     C_R   0.987454 0.403689 0.401333 0.073885
C34   C     C_R   0.011881 0.596893 0.598604 0.076157
C35   C     C_R   0.399406 0.400805 0.994573 0.073948
C36   C     C_R   0.588497 0.588440 0.039478 0.072470
C37   C     C_R   0.269149 0.965440 0.397199 -0.118021
C38   C     C_R   0.728945 0.042227 0.598972 -0.114793
C39   C     C_R   0.963805 0.398344 0.268998 -0.116099
C40   C     C_R   0.035804 0.601952 0.730984 -0.121374
C41   C     C_R   0.397209 0.269185 0.965776 -0.116441
C42   C     C_R   0.598268 0.728637 0.044257 -0.118452
C43   C     C_R   0.600178 0.034737 0.731229 -0.111014
C44   C     C_R   0.389557 0.990387 0.261321 -0.114851
C45   C     C_R   0.730544 0.599522 0.037583 -0.112359
C46   C     C_R   0.261010 0.389293 0.991178 -0.115652
C47   C     C_R   0.009809 0.737798 0.610972 -0.116301
C48   C     C_R   0.989653 0.262537 0.389117 -0.116967
C49   C     C_R   0.461333 0.022764 0.718166 -0.155881
C50   C     C_R   0.502272 0.052906 0.261421 -0.157470
C51   C     C_R   0.944780 0.735603 0.502155 -0.157463
C52   C     C_R   0.054084 0.265069 0.498128 -0.160598
C53   C     C_R   0.716441 0.458939 0.030307 -0.159554
C54   C     C_R   0.259824 0.500648 0.056483 -0.161604
C55   C     C_R   0.298910 0.936059 0.540430 -0.147800
C56   C     C_R   0.702355 0.074254 0.452104 -0.145130
C57   C     C_R   0.540307 0.298575 0.938533 -0.152839
C58   C     C_R   0.450637 0.701830 0.077827 -0.152517
C59   C     C_R   0.925944 0.543268 0.301702 -0.144504
C60   C     C_R   0.073605 0.457295 0.698072 -0.151360
C61   C     C_R   0.306882 0.972021 0.306381 -0.247464
C62   C     C_R   0.688909 0.038232 0.689446 -0.251808
C63   C     C_R   0.971547 0.306946 0.306599 -0.247441
C64   C     C_R   0.027992 0.693342 0.693468 -0.245402
C65   C     C_R   0.306449 0.306990 0.971756 -0.246796
C66   C     C_R   0.689005 0.688794 0.039823 -0.245936
C67   C     C_R   0.653244 0.070932 0.402302 -0.019116
C68   C     C_R   0.342644 0.949861 0.588096 -0.022301
C69   C     C_R   0.071284 0.407921 0.647960 -0.026165
C70   C     C_R   0.927822 0.592736 0.352052 -0.019051
C71   C     C_R   0.400569 0.651911 0.075744 -0.028590
C72   C     C_R   0.587584 0.341266 0.954406 -0.027698
C73   C     C_R   0.553472 0.058946 0.306847 -0.027182
C74   C     C_R   0.424446 0.992793 0.677678 -0.047938
C75   C     C_R   0.305021 0.551234 0.064372 -0.029213
C76   C     C_R   0.676267 0.421611 0.000403 -0.049766
C77   C     C_R   0.061483 0.311589 0.547631 -0.027201
C78   C     C_R   0.936937 0.689142 0.452827 -0.026189
C79   C     C_R   0.680419 0.096185 0.307822 0.256347
C80   C     C_R   0.310606 0.933777 0.681902 0.257902
C81   C     C_R   0.104197 0.313396 0.670211 0.243171
C82   C     C_R   0.893906 0.687233 0.330472 0.254567
C83   C     C_R   0.305843 0.678528 0.101711 0.243325
C84   C     C_R   0.681426 0.308873 0.939274 0.254953
C85   C     C_R   0.630354 0.090717 0.260370 0.234325
C86   C     C_R   0.348960 0.959269 0.726063 0.252018
C87   C     C_R   0.258225 0.627290 0.097823 0.229269
C88   C     C_R   0.724993 0.346098 0.966840 0.249598
C89   C     C_R   0.099334 0.265508 0.620181 0.231679
C90   C     C_R   0.897835 0.735191 0.381069 0.235942
C91   C     C_R   0.526731 0.033129 0.400694 -0.005058
C92   C     C_R   0.462731 0.998720 0.586776 -0.006173
C93   C     C_R   0.029557 0.405914 0.524553 -0.008290
C94   C     C_R   0.969547 0.594823 0.475426 -0.006507
C95   C     C_R   0.399126 0.524820 0.038415 -0.008109
C96   C     C_R   0.585454 0.460339 0.005289 -0.008370
C97   C     C_R   0.575202 0.041517 0.448119 -0.009197
C98   C     C_R   0.418521 0.982986 0.540732 -0.009505
C99   C     C_R   0.446488 0.573340 0.047089 -0.012944
C100  C     C_R   0.539726 0.416631 0.988395 -0.012263
C101  C     C_R   0.034953 0.454038 0.574331 -0.012552
C102  C     C_R   0.964295 0.546674 0.425561 -0.010390
Cu1   Cu    Cu3+1 0.995180 0.995180 0.424630 1.073608
Cu2   Cu    Cu3+1 0.004820 0.004820 0.575370 1.072183
Cu3   Cu    Cu3+1 0.995180 0.424630 0.995180 1.071424
Cu4   Cu    Cu3+1 0.004820 0.575370 0.004820 1.072399
Cu5   Cu    Cu3+1 0.424630 0.995180 0.995180 1.069097
Cu6   Cu    Cu3+1 0.575370 0.004820 0.004820 1.078633
H1    H     H_    0.270287 0.965223 0.269721 0.206585
H2    H     H_    0.728633 0.034586 0.728945 0.203017
H3    H     H_    0.965964 0.269383 0.269975 0.205850
H4    H     H_    0.033679 0.730837 0.730092 0.204600
H5    H     H_    0.270121 0.270688 0.963726 0.206604
H6    H     H_    0.728970 0.729112 0.034517 0.204297
H7    H     H_    0.415309 0.045586 0.774617 0.222222
H8    H     H_    0.514719 0.084974 0.190923 0.199927
H9    H     H_    0.912774 0.806392 0.490436 0.200492
H10   H     H_    0.086398 0.194345 0.509722 0.201256
H11   H     H_    0.772869 0.413568 0.053572 0.218648
H12   H     H_    0.188913 0.513435 0.087132 0.202238
H13   H     H_    0.246971 0.902598 0.576597 0.201909
H14   H     H_    0.758928 0.101205 0.416980 0.203591
H15   H     H_    0.576896 0.247354 0.904118 0.201641
H16   H     H_    0.415599 0.759371 0.103455 0.203032
H17   H     H_    0.894389 0.577550 0.248455 0.199013
H18   H     H_    0.105345 0.422968 0.751181 0.199424
O1    O     O_R   0.124540 0.978640 0.385460 -0.565343
O2    O     O_R   0.875460 0.021360 0.614540 -0.566331
O3    O     O_R   0.978640 0.385460 0.124540 -0.571869
O4    O     O_R   0.021360 0.614540 0.875460 -0.565164
O5    O     O_R   0.385460 0.124540 0.978640 -0.569905
O6    O     O_R   0.614540 0.875460 0.021360 -0.561281
O7    O     O_R   0.614540 0.021360 0.875460 -0.566943
O8    O     O_R   0.385460 0.978640 0.124540 -0.571621
O9    O     O_R   0.875460 0.614540 0.021360 -0.567350
O10   O     O_R   0.124540 0.385460 0.978640 -0.569872
O11   O     O_R   0.021360 0.875460 0.614540 -0.569733
O12   O     O_R   0.978640 0.124540 0.385460 -0.570673
O13   O     O_R   0.013780 0.867370 0.487190 -0.573883
O14   O     O_R   0.986220 0.132630 0.512810 -0.574790
O15   O     O_R   0.867370 0.487190 0.013780 -0.588043
O16   O     O_R   0.132630 0.512810 0.986220 -0.578773
O17   O     O_R   0.487190 0.013780 0.867370 -0.588788
O18   O     O_R   0.512810 0.986220 0.132630 -0.574350
O19   O     O_R   0.512810 0.132630 0.986220 -0.582387
O20   O     O_R   0.487190 0.867370 0.013780 -0.572189
O21   O     O_R   0.986220 0.512810 0.132630 -0.580908
O22   O     O_R   0.013780 0.487190 0.867370 -0.568471
O23   O     O_R   0.132630 0.986220 0.512810 -0.578913
O24   O     O_R   0.867370 0.013780 0.487190 -0.580732
Br1   Br    Br    0.302175 0.941027 0.854040 -0.334377
Br2   Br    Br    0.671359 0.122097 0.131554 -0.379634
Br3   Br    Br    0.850874 0.864493 0.349385 -0.389816
Br4   Br    Br    0.141596 0.136169 0.654784 -0.403218
Br5   Br    Br    0.852775 0.298287 0.950739 -0.329648
Br6   Br    Br    0.128685 0.664414 0.135879 -0.385466
Br7   Br    Br    0.211665 0.881475 0.750595 -0.371440
Br8   Br    Br    0.785945 0.138634 0.241743 -0.380156
Br9   Br    Br    0.751062 0.211953 0.884072 -0.369230
Br10  Br    Br    0.239747 0.784840 0.143040 -0.376777
Br11  Br    Br    0.842323 0.752819 0.231180 -0.378698
Br12  Br    Br    0.155337 0.247637 0.769832 -0.395532

loop_
_geom_bond_atom_site_label_1
_geom_bond_atom_site_label_2
_ccdc_geom_bond_type
C68   C80   A    
C83   C87   A    
C55   H13   S    
C9    C45   A    
C54   H12   S    
C16   C94   A    
C18   C96   A    
C81   Br12  S    
C6    C58   A    
C11   C47   A    
C79   C85   A    
C12   C48   A    
C61   H1    S    
C79   Br8   S    
C55   C68   A    
C80   Br7   S    
C75   C95   A    
C78   C90   A    
C15   C33   A    
C77   C89   A    
C24   O18   A    
Cu5   O8    S    
Cu3   O15   S    
C19   C47   S    
C58   C71   A    
C64   H4    S    
C28   C40   S    
C95   C99   A    
C74   C92   A    
C96   C100  A    
C1    C31   A    
C23   C43   S    
Cu2   O11   S    
C30   C38   S    
C2    C32   A    
C20   O12   A    
C13   C98   A    
C26   O20   A    
C80   C86   A    
Cu1   Cu2   S    
Cu1   O24   S    
C16   C34   A    
C30   O2    A    
C83   Br10  S    
C4    C40   A    
C27   C39   S    
C62   H2    S    
C10   C46   A    
C9    C36   A    
Cu5   Cu6   S    
C10   C35   A    
C17   C95   A    
C7    C43   A    
Cu1   O1    S    
C76   C88   A    
C71   C83   A    
C1    C37   A    
C81   C89   A    
C3    C39   A    
C15   C102  A    
C13   C91   A    
C63   H3    S    
C23   O17   A    
C10   C54   A    
C12   C52   A    
C84   Br9   S    
Cu4   O16   S    
C21   C45   S    
C69   C81   A    
C4    C34   A    
C28   O22   A    
Cu6   O6    S    
C23   O7    A    
C92   C98   A    
C88   Br5   S    
C84   C88   A    
C67   C79   A    
C73   C91   A    
C46   C65   A    
Cu5   O5    S    
C50   C73   A    
C93   C101  A    
C47   C64   A    
Cu5   O20   S    
C48   C63   A    
Cu3   O3    S    
Cu3   O22   S    
C71   C99   A    
C91   C97   A    
Cu4   O21   S    
Cu2   O14   S    
C22   O10   A    
C56   H14   S    
Cu2   O23   S    
Cu1   O13   S    
C57   H15   S    
C2    C38   A    
Cu2   O2    S    
C19   O11   A    
C73   C85   A    
C22   O16   A    
C53   H11   S    
C20   C48   S    
C74   C86   A    
C90   Br3   S    
C7    C49   A    
C72   C84   A    
Cu3   O10   S    
C75   C87   A    
Cu4   O9    S    
C22   C46   S    
C14   C92   A    
C29   O1    A    
C27   O3    A    
Cu1   O12   S    
C53   C76   A    
C9    C53   A    
C18   C99   A    
C25   C41   S    
C52   C77   A    
C25   O5    A    
C8    C50   A    
Cu6   O18   S    
C26   O6    A    
C26   C42   S    
C14   C97   A    
Cu6   O19   S    
C72   C100  A    
C24   O8    A    
Cu4   O4    S    
C5    C41   A    
C7    C32   A    
C66   H6    S    
C30   O24   A    
C49   H7    S    
C87   Br6   S    
C8    C31   A    
C65   H5    S    
C13   C31   A    
C11   C34   A    
C8    C44   A    
C14   C32   A    
C4    C60   A    
C82   C90   A    
C15   C93   A    
C37   C61   A    
C70   C102  A    
C82   Br11  S    
C69   C101  A    
C44   C61   A    
C59   H17   S    
C56   C67   A    
C39   C63   A    
Cu3   Cu4   S    
C58   H16   S    
C40   C64   A    
C5    C57   A    
C20   O14   A    
C60   H18   S    
C1    C55   A    
C51   C78   A    
C21   O15   A    
Cu6   O7    S    
C27   O21   A    
C2    C56   A    
C86   Br1   S    
C76   C96   A    
C28   O4    A    
C89   Br4   S    
C18   C36   A    
C60   C69   A    
C78   C94   A    
C24   C44   S    
C5    C35   A    
C77   C93   A    
C51   H9    S    
C6    C36   A    
C50   H8    S    
C57   C72   A    
C41   C65   A    
C70   C82   A    
C17   C100  A    
C68   C98   A    
C85   Br2   S    
C11   C51   A    
C67   C97   A    
C59   C70   A    
C29   O23   A    
C54   C75   A    
C16   C101  A    
C94   C102  A    
C19   O13   A    
C6    C42   A    
C29   C37   S    
C45   C66   A    
C42   C66   A    
C3    C33   A    
C49   C74   A    
C25   O19   A    
C17   C35   A    
C12   C33   A    
Cu5   O17   S    
C21   O9    A    
C43   C62   A    
C3    C59   A    
C38   C62   A    
C52   H10   S    
