data_mof_unit_pretest_491.cif
_audit_creation_date              2012-12-11T15:46:46-0500
_audit_creation_method            fapswitch 2.2
_symmetry_space_group_name_H-M    P1
_symmetry_Int_Tables_number       1
_space_group_crystal_system       triclinic
_cell_length_a                    11.548017
_cell_length_b                    11.53098
_cell_length_c                    19.574446
_cell_angle_alpha                 90.457938
_cell_angle_beta                  89.934143
_cell_angle_gamma                 59.94181
_cell_volume                      2255.88639008

loop_
_atom_site_label
_atom_site_type_symbol
_atom_type_description
_atom_site_fract_x
_atom_site_fract_y
_atom_site_fract_z
_atom_type_partial_charge
C1    C     C_R   0.640282 0.117339 0.599328 0.540281
C2    C     C_1   0.640902 0.704138 0.668057 0.004479
C3    C     C_1   0.126694 0.198796 0.859254 0.006516
C4    C     C_1   0.171528 0.170292 0.727733 -0.030083
C5    C     C_1   0.150148 0.182299 0.798927 -0.029530
C6    C     C_1   0.195319 0.160911 0.667429 0.005335
C7    C     C_1   0.679003 0.191163 0.860718 0.006808
C8    C     C_1   0.658424 0.167233 0.729056 -0.030003
C9    C     C_1   0.665926 0.180816 0.800330 -0.029245
C10   C     C_1   0.652646 0.149757 0.668702 0.005191
C11   C     C_R   0.677663 0.633512 0.199622 0.016348
C12   C     C_R   0.612268 0.746224 0.598711 0.543311
C13   C     C_R   0.577417 0.626868 0.235650 0.018704
C14   C     C_R   0.569272 0.638025 0.304926 0.013071
C15   C     C_R   0.778459 0.638018 0.307495 -0.174171
C16   C     C_R   0.786084 0.625960 0.236236 -0.164527
C17   C     C_3   0.429912 0.701650 0.225306 -0.266869
C18   C     C_3   0.418596 0.715707 0.302061 -0.261851
C19   C     C_R   0.661530 0.659546 0.341068 0.016713
C20   C     C_R   0.119225 0.208624 0.196855 0.028456
C21   C     C_R   0.125765 0.307092 0.234837 0.019067
C22   C     C_R   0.155209 0.289045 0.303039 -0.065420
C23   C     C_R   0.240991 0.145302 0.598229 0.540700
C24   C     C_R   0.145334 0.084870 0.301707 -0.168418
C25   C     C_R   0.118640 0.101728 0.231526 -0.160660
C26   C     C_3   0.209930 0.369400 0.222421 0.734078
C27   C     C_3   0.246833 0.345751 0.296908 0.315219
C28   C     C_R   0.173716 0.174093 0.336857 0.027992
C29   C     C_R   0.684648 0.194653 0.198588 0.053100
C30   C     C_R   0.776391 0.074141 0.228606 0.014071
C31   C     C_R   0.773308 0.053957 0.297071 0.006276
C32   C     C_R   0.596998 0.283047 0.312210 -0.083133
C33   C     C_R   0.600390 0.303139 0.241648 -0.077880
C34   C     C_R   0.646724 0.113732 0.403662 0.568256
C35   C     C_3   0.810241 0.935024 0.209921 -0.255502
C36   C     C_3   0.805612 0.912305 0.285612 -0.246015
C37   C     C_R   0.676896 0.153886 0.339139 0.042568
C38   C     C_R   0.081797 0.231138 0.928559 0.550921
C39   C     C_R   0.684100 0.604216 0.929435 0.544242
C40   C     C_R   0.708623 0.206687 0.930055 0.552380
C41   C     C_R   0.078997 0.237722 0.126387 0.572973
C42   C     C_R   0.685762 0.605652 0.127544 0.539771
C43   C     C_R   0.709865 0.212920 0.128047 0.557354
C44   C     C_R   0.618794 0.734658 0.404142 0.547912
C45   C     C_R   0.242749 0.141585 0.401875 0.582255
C46   C     C_1   0.670724 0.646184 0.860061 0.005821
C47   C     C_1   0.654585 0.683770 0.728439 -0.030446
C48   C     C_1   0.663595 0.666502 0.799661 -0.029674
Cr1   Cr    Cr6+3 0.404720 0.198220 0.499960 1.051381
Cr2   Cr    Cr6+3 0.698290 0.897110 0.500380 1.026262
Cr3   Cr    Cr6+3 0.396970 0.904720 0.499610 1.025556
Cr4   Cr    Cr6+3 0.926290 0.152010 0.028150 1.035156
Cr5   Cr    Cr6+3 0.921440 0.451830 0.027490 1.079070
Cr6   Cr    Cr6+3 0.626370 0.446880 0.028730 1.060292
H1    H     H_    0.855967 0.645524 0.334821 0.132515
H2    H     H_    0.215051 0.438088 0.327963 0.090066
H3    H     H_    0.524605 0.364466 0.344105 0.136620
H4    H     H_    0.535630 0.401266 0.220799 0.147608
H5    H     H_    0.912352 0.875863 0.187548 0.165711
H6    H     H_    0.729622 0.931420 0.180602 0.158524
H7    H     H_    0.720882 0.897516 0.300137 0.175790
H8    H     H_    0.904583 0.838563 0.306886 0.143986
H9    H     H_    0.872886 0.616768 0.210039 0.196011
H10   H     H_    0.391693 0.637515 0.204249 0.168780
H11   H     H_    0.394576 0.798524 0.198744 0.152047
H12   H     H_    0.374566 0.821759 0.318680 0.175436
H13   H     H_    0.372877 0.660440 0.325494 0.136034
H14   H     H_    0.152075 0.998598 0.326994 0.121323
H15   H     H_    0.101156 0.029725 0.204405 0.143943
O1    O     O_R   0.267750 0.231960 0.575440 -0.511567
O2    O     O_R   0.685950 0.784660 0.430010 -0.508744
O3    O     O_R   0.502510 0.767000 0.423980 -0.523123
O4    O     O_R   0.288320 0.026340 0.429250 -0.513602
O5    O     O_3   0.499990 0.000020 0.499980 -0.252446
O6    O     O_R   0.821590 0.119350 0.952850 -0.503164
O7    O     O_R   0.037230 0.162540 0.957390 -0.495124
O8    O     O_R   0.056530 0.344750 0.951370 -0.495676
O9    O     O_R   0.798000 0.560370 0.957490 -0.494923
O10   O     O_R   0.596230 0.579400 0.952760 -0.502246
O11   O     O_R   0.639160 0.321170 0.958690 -0.487077
O12   O     O_R   0.527290 0.186640 0.570530 -0.501946
O13   O     O_R   0.821370 0.124220 0.104400 -0.522793
O14   O     O_R   0.037020 0.167050 0.097880 -0.521727
O15   O     O_R   0.056310 0.349620 0.102920 -0.451457
O16   O     O_R   0.797790 0.564880 0.097980 -0.503077
O17   O     O_R   0.596000 0.584270 0.104310 -0.515917
O18   O     O_R   0.638950 0.325690 0.099180 -0.488082
O19   O     O_3   0.824700 0.350240 0.028120 -0.276280
O20   O     O_R   0.728110 0.003450 0.576380 -0.506888
O21   O     O_R   0.682980 0.789190 0.570500 -0.495393
O22   O     O_R   0.499300 0.771880 0.575540 -0.506061
O23   O     O_R   0.285350 0.030870 0.569740 -0.496379
O24   O     O_R   0.270960 0.227070 0.423890 -0.484814
O25   O     O_R   0.530270 0.182120 0.430040 -0.459403
O26   O     O_R   0.731320 0.998570 0.424830 -0.529237
F1    F     F_    0.315998 0.296169 0.177930 -0.568984
F2    F     F_    0.378574 0.247061 0.305382 -0.615269
F3    F     F_    0.135326 0.503720 0.206174 -0.667454

loop_
_geom_bond_atom_site_label_1
_geom_bond_atom_site_label_2
_ccdc_geom_bond_type
C21   C26   S    
C33   H4    S    
C34   C37   S    
C14   C18   S    
C12   O22   A    
C35   C36   S    
Cr3   O5    S    
Cr4   O6    S    
C2    C12   S    
C20   C41   S    
C38   O7    A    
C15   C19   A    
C26   C27   S    
C30   C35   S    
C44   O2    A    
Cr5   O15   S    
C12   O21   A    
Cr2   O5    S    
C17   H10   S    
C30   C31   A    
Cr2   O26   S    
C20   C25   A    
C1    O12   A    
C15   C16   A    
C41   O14   A    
C29   C33   A    
C11   C42   S    
C45   O4    A    
Cr1   O12   S    
Cr3   O22   S    
Cr2   O21   S    
C3    C38   S    
C8    C9    S    
C7    C40   S    
C40   O11   A    
C42   O17   A    
C16   H9    S    
Cr1   O25   S    
C24   C28   A    
C31   C36   S    
C45   O24   A    
C22   C28   A    
C21   C22   A    
C29   C43   S    
C23   O1    A    
C32   H3    S    
C36   H8    S    
Cr6   O11   S    
C26   F1    S    
C35   H5    S    
C46   C48   T    
C28   C45   S    
C39   O9    A    
Cr3   O4    S    
Cr4   O19   S    
C24   C25   A    
C4    C6    T    
Cr6   O17   S    
C27   H2    S    
Cr4   O7    S    
C18   H13   S    
C41   O15   A    
C31   C37   A    
C35   H6    S    
C39   O10   A    
Cr4   O14   S    
Cr5   O8    S    
Cr2   O2    S    
C29   C30   A    
Cr3   O23   S    
C11   C16   A    
Cr2   O20   S    
C47   C48   S    
C17   C18   S    
C42   O16   A    
C32   C37   A    
C34   O26   A    
Cr4   O13   S    
C26   F3    S    
C39   C46   S    
Cr1   O1    S    
C25   H15   S    
Cr3   O3    S    
C36   H7    S    
C19   C44   S    
Cr6   O10   S    
C7    C9    T    
C27   F2    S    
C1    O20   A    
Cr1   O5    S    
C14   C19   A    
C1    C10   S    
C34   O25   A    
C4    C5    S    
C3    C5    T    
C38   O8    A    
C2    C47   T    
C18   H12   S    
C17   H11   S    
C40   O6    A    
C13   C17   S    
C22   C27   S    
C43   O18   A    
C32   C33   A    
Cr5   O9    S    
Cr6   O19   S    
C11   C13   A    
Cr6   O18   S    
C6    C23   S    
C44   O3    A    
Cr5   O19   S    
C24   H14   S    
C20   C21   A    
C8    C10   T    
C43   O13   A    
C23   O23   A    
Cr5   O16   S    
Cr1   O24   S    
C13   C14   A    
C15   H1    S    
