data_mof_unit_pretest_1775.cif
_audit_creation_date              2013-03-05T16:18:50-0500
_audit_creation_method            fapswitch 2.2
_symmetry_space_group_name_H-M    P1
_symmetry_Int_Tables_number       1
_space_group_crystal_system       triclinic
_cell_length_a                    32.418352
_cell_length_b                    34.188296
_cell_length_c                    22.299937
_cell_angle_alpha                 90.011059
_cell_angle_beta                  89.989236
_cell_angle_gamma                 89.999912
_cell_volume                      24715.6484511

loop_
_atom_site_label
_atom_site_type_symbol
_atom_site_description
_atom_site_fract_x
_atom_site_fract_y
_atom_site_fract_z
_atom_type_partial_charge
O1    O     O_R   0.041070 0.458950 0.550320 -0.596208
O2    O     O_R   0.958930 0.541050 0.449680 -0.597018
O3    O     O_R   0.958930 0.541050 0.550320 -0.505520
O4    O     O_R   0.041070 0.458950 0.449680 -0.506142
O5    O     O_R   0.958930 0.458950 0.449680 -0.506245
O6    O     O_R   0.041070 0.541050 0.550320 -0.505645
O7    O     O_R   0.041070 0.541050 0.449680 -0.598378
O8    O     O_R   0.958930 0.458950 0.550320 -0.597482
O9    O     O_R   0.541070 0.958950 0.550320 -0.505447
O10   O     O_R   0.458930 0.041050 0.449680 -0.504824
O11   O     O_R   0.458930 0.041050 0.550320 -0.597911
O12   O     O_R   0.541070 0.958950 0.449680 -0.597099
O13   O     O_R   0.458930 0.958950 0.449680 -0.597373
O14   O     O_R   0.541070 0.041050 0.550320 -0.598283
O15   O     O_R   0.541070 0.041050 0.449680 -0.505838
O16   O     O_R   0.458930 0.958950 0.550320 -0.506426
C1    C     C_R   0.036587 0.499994 0.318900 0.329711
C2    C     C_R   0.963414 0.500016 0.681102 0.330881
C3    C     C_R   0.963414 0.500012 0.318918 0.328682
C4    C     C_R   0.036587 0.499981 0.681081 0.329714
C5    C     C_R   0.536589 0.999968 0.318904 0.328666
C6    C     C_R   0.463412 0.000024 0.681097 0.327644
C7    C     C_R   0.463416 0.000021 0.318913 0.331641
C8    C     C_R   0.536585 0.999988 0.681084 0.330450
C9    C     C_R   0.054276 0.445018 0.499967 0.858160
C10   C     C_R   0.945725 0.554983 0.500033 0.858026
C11   C     C_R   0.945725 0.445017 0.499974 0.857854
C12   C     C_R   0.054266 0.554990 0.500020 0.858337
C13   C     C_R   0.554266 0.945010 0.500013 0.858736
C14   C     C_R   0.445735 0.054991 0.499987 0.858554
C15   C     C_R   0.445724 0.945018 0.500026 0.857780
C16   C     C_R   0.554266 0.054990 0.499980 0.858247
Cu1   Cu    Cu3+1 1.000000 0.500000 0.559570 1.058520
Cu2   Cu    Cu3+1 1.000000 0.500000 0.440430 1.057780
Cu3   Cu    Cu3+1 0.500000 0.000000 0.559570 1.057521
Cu4   Cu    Cu3+1 0.500000 0.000000 0.440430 1.058264
N1    N     N_R   1.000000 0.500000 0.350920 -0.219602
N2    N     N_R   0.000000 0.500000 0.649080 -0.218453
N3    N     N_R   0.500000 1.000000 0.350920 -0.218527
N4    N     N_R   0.500000 0.000000 0.649080 -0.219670
C17   C     C_R   0.164295 0.714362 0.514794 0.598097
C18   C     C_R   0.834685 0.286886 0.522772 0.599702
C19   C     C_R   0.834703 0.713124 0.477277 0.600600
C20   C     C_R   0.165309 0.286886 0.522737 0.600362
C21   C     C_R   0.664303 0.214355 0.485185 0.597746
C22   C     C_R   0.334697 0.786875 0.477255 0.599863
C23   C     C_R   0.335713 0.214365 0.485227 0.598436
C24   C     C_R   0.664295 0.785642 0.514770 0.598775
N5    N     N_R   0.174638 0.677446 0.496374 -0.466805
N6    N     N_R   0.824505 0.323540 0.503173 -0.468691
N7    N     N_R   0.824515 0.676468 0.496866 -0.468599
N8    N     N_R   0.175495 0.323540 0.503139 -0.468704
N9    N     N_R   0.674636 0.177448 0.503635 -0.466805
N10   N     N_R   0.324505 0.823540 0.496822 -0.468698
N11   N     N_R   0.325375 0.177458 0.503675 -0.466773
N12   N     N_R   0.674634 0.822550 0.496328 -0.466702
C25   C     C_R   0.213751 0.668618 0.477415 0.602457
C26   C     C_R   0.785460 0.332392 0.484147 0.604074
C27   C     C_R   0.785461 0.667613 0.515871 0.604806
C28   C     C_R   0.214548 0.332394 0.484126 0.604416
C29   C     C_R   0.713738 0.168630 0.522624 0.602802
C30   C     C_R   0.285450 0.832403 0.515818 0.603778
C31   C     C_R   0.286265 0.168638 0.522652 0.603145
C32   C     C_R   0.713745 0.831371 0.477358 0.603498
C33   C     C_R   0.244521 0.697654 0.476370 -0.142132
C34   C     C_R   0.754496 0.303545 0.484143 -0.142816
C35   C     C_R   0.754494 0.696458 0.515860 -0.142726
C36   C     C_R   0.245514 0.303548 0.484137 -0.143081
C37   C     C_R   0.744508 0.197666 0.523668 -0.142028
C38   C     C_R   0.254486 0.803555 0.515824 -0.142996
C39   C     C_R   0.255493 0.197673 0.523682 -0.142295
C40   C     C_R   0.744518 0.802337 0.476330 -0.141873
C41   C     C_R   0.234340 0.735762 0.495801 -0.089246
C42   C     C_R   0.764605 0.265508 0.503993 -0.089258
C43   C     C_R   0.764611 0.734497 0.496017 -0.089110
C44   C     C_R   0.235399 0.265512 0.503988 -0.089128
C45   C     C_R   0.734339 0.235763 0.504204 -0.089243
C46   C     C_R   0.264606 0.765506 0.496008 -0.089251
C47   C     C_R   0.265668 0.235770 0.504216 -0.089118
C48   C     C_R   0.734341 0.764238 0.495788 -0.089101
C49   C     C_R   0.193960 0.744196 0.515180 -0.084859
C50   C     C_R   0.804963 0.257103 0.523528 -0.085942
C51   C     C_R   0.804979 0.742905 0.476507 -0.085738
C52   C     C_R   0.195033 0.257105 0.523507 -0.086066
C53   C     C_R   0.693969 0.244187 0.484795 -0.084863
C54   C     C_R   0.304976 0.757092 0.476504 -0.085821
C55   C     C_R   0.306046 0.244196 0.484823 -0.084978
C56   C     C_R   0.693962 0.755811 0.515173 -0.084721
C57   C     C_R   0.285063 0.689732 0.456888 0.662786
C58   C     C_R   0.713913 0.311515 0.464967 0.663247
C59   C     C_R   0.713902 0.688484 0.535012 0.663597
C60   C     C_R   0.286105 0.311521 0.464976 0.663634
C61   C     C_R   0.785039 0.189755 0.543180 0.662685
C62   C     C_R   0.213892 0.811535 0.534970 0.663393
C63   C     C_R   0.214954 0.189760 0.543179 0.663136
C64   C     C_R   0.785059 0.810252 0.456843 0.663058
C65   C     C_R   0.814772 0.219222 0.543083 -0.206675
C66   C     C_R   0.184098 0.782130 0.534494 -0.205271
C67   C     C_R   0.185219 0.219225 0.543065 -0.206337
C68   C     C_R   0.814794 0.780787 0.456958 -0.206344
C69   C     C_R   0.314795 0.719200 0.456982 -0.206965
C70   C     C_R   0.684118 0.282110 0.465447 -0.205141
C71   C     C_R   0.684104 0.717886 0.534514 -0.204739
C72   C     C_R   0.315902 0.282118 0.465474 -0.204844
O17   O     O_2   0.125311 0.722202 0.532330 -0.504285
O18   O     O_2   0.873556 0.279268 0.541019 -0.504807
O19   O     O_2   0.873582 0.720744 0.459051 -0.505024
O20   O     O_2   0.126431 0.279267 0.540970 -0.504204
O21   O     O_2   0.625329 0.222185 0.467621 -0.503869
O22   O     O_2   0.373577 0.779248 0.459037 -0.505540
O23   O     O_2   0.374695 0.222196 0.467677 -0.503398
O24   O     O_2   0.625312 0.777809 0.532314 -0.503956
O25   O     O_2   0.222792 0.631746 0.460312 -0.421483
O26   O     O_2   0.776776 0.369047 0.465640 -0.418313
O27   O     O_2   0.776770 0.630957 0.534370 -0.417863
O28   O     O_2   0.223237 0.369048 0.465619 -0.417169
O29   O     O_2   0.722770 0.131767 0.539757 -0.422091
O30   O     O_2   0.276756 0.869067 0.534294 -0.417642
O31   O     O_2   0.277228 0.131776 0.539783 -0.420906
O32   O     O_2   0.722782 0.868234 0.460231 -0.421648
H1    H     H_    0.845613 0.212160 0.558310 0.221980
H2    H     H_    0.153220 0.789234 0.549540 0.222959
H3    H     H_    0.154371 0.212161 0.558280 0.222131
H4    H     H_    0.845643 0.787852 0.441750 0.221692
H5    H     H_    0.345645 0.712129 0.441779 0.221781
H6    H     H_    0.653248 0.289206 0.450378 0.223084
H7    H     H_    0.653227 0.710788 0.549565 0.222832
H8    H     H_    0.346778 0.289215 0.450416 0.223211
C73   C     C_R   0.872329 0.365679 0.447666 -0.154895
C74   C     C_R   0.127262 0.634727 0.552112 -0.149926
C75   C     C_R   0.127699 0.365698 0.447635 -0.153391
C76   C     C_R   0.872323 0.634321 0.552365 -0.153516
C77   C     C_R   0.372309 0.865697 0.552331 -0.153637
C78   C     C_R   0.627285 0.134707 0.447893 -0.148601
C79   C     C_R   0.627274 0.865290 0.552079 -0.148331
C80   C     C_R   0.372742 0.134724 0.447925 -0.148631
H9    H     H_    0.862329 0.352234 0.406165 0.180988
H10   H     H_    0.137336 0.648057 0.593664 0.184769
H11   H     H_    0.137721 0.352265 0.406129 0.182298
H12   H     H_    0.862314 0.647764 0.593869 0.182376
H13   H     H_    0.362293 0.852265 0.593832 0.181277
H14   H     H_    0.637378 0.148020 0.406340 0.185081
H15   H     H_    0.637359 0.851974 0.593628 0.186061
H16   H     H_    0.362665 0.148045 0.406377 0.186108
C81   C     C_R   0.902102 0.395116 0.446379 0.622998
C82   C     C_R   0.097743 0.605061 0.553501 0.619560
C83   C     C_R   0.097927 0.395136 0.446354 0.624615
C84   C     C_R   0.902093 0.604881 0.553644 0.625412
C85   C     C_R   0.402081 0.895135 0.553619 0.623635
C86   C     C_R   0.597768 0.105040 0.446501 0.620170
C87   C     C_R   0.597757 0.894957 0.553478 0.621213
C88   C     C_R   0.402258 0.105055 0.446525 0.622002
C89   C     C_R   0.915091 0.413031 0.500176 -0.172527
C90   C     C_R   0.084785 0.587077 0.499764 -0.173053
C91   C     C_R   0.084912 0.413033 0.500157 -0.175228
C92   C     C_R   0.915092 0.586971 0.499843 -0.175422
C93   C     C_R   0.415089 0.913032 0.499822 -0.172496
C94   C     C_R   0.584786 0.087076 0.500239 -0.173019
C95   C     C_R   0.584785 0.912923 0.499743 -0.175806
C96   C     C_R   0.415219 0.087080 0.500258 -0.175964
C97   C     C_R   0.898507 0.399897 0.554907 -0.263109
C98   C     C_R   0.101189 0.600311 0.444991 -0.262825
C99   C     C_R   0.101470 0.399884 0.554887 -0.261288
C100  C     C_R   0.898521 0.600110 0.445115 -0.262047
C101  C     C_R   0.398524 0.899881 0.445090 -0.264319
C102  C     C_R   0.601167 0.100329 0.555014 -0.264047
C103  C     C_R   0.601175 0.899672 0.444964 -0.261057
C104  C     C_R   0.398822 0.100324 0.555036 -0.261814
H17   H     H_    0.908282 0.412469 0.597101 0.203244
H18   H     H_    0.091405 0.587703 0.402825 0.203334
H19   H     H_    0.091675 0.412443 0.597086 0.206275
H20   H     H_    0.908304 0.587540 0.402918 0.205854
H21   H     H_    0.408313 0.912441 0.402896 0.203343
H22   H     H_    0.591366 0.087736 0.597180 0.203424
H23   H     H_    0.591382 0.912267 0.402801 0.206345
H24   H     H_    0.408607 0.087722 0.597198 0.205912
C105  C     C_R   0.868897 0.370359 0.555885 -0.081290
C106  C     C_R   0.130536 0.630073 0.443888 -0.081847
C107  C     C_R   0.131079 0.370345 0.555859 -0.080625
C108  C     C_R   0.868915 0.629650 0.444144 -0.080441
C109  C     C_R   0.368915 0.870342 0.444110 -0.082635
C110  C     C_R   0.630513 0.130093 0.556120 -0.083182
C111  C     C_R   0.630522 0.869908 0.443851 -0.080951
C112  C     C_R   0.369478 0.130091 0.556150 -0.081066
H25   H     H_    0.856116 0.360794 0.598286 0.169563
H26   H     H_    0.142944 0.639841 0.401361 0.174008
H27   H     H_    0.143838 0.360767 0.598260 0.170980
H28   H     H_    0.856144 0.639220 0.401747 0.171066
H29   H     H_    0.356149 0.860764 0.401709 0.169175
H30   H     H_    0.642902 0.139877 0.598649 0.173652
H31   H     H_    0.642919 0.860125 0.401320 0.175457
H32   H     H_    0.357075 0.139869 0.598681 0.175475
C113  C     C_R   0.855516 0.353398 0.502264 0.235342
C114  C     C_R   0.143903 0.647219 0.497443 0.229020
C115  C     C_R   0.144485 0.353399 0.502233 0.233439
C116  C     C_R   0.855524 0.646609 0.497770 0.233561
C117  C     C_R   0.355516 0.853398 0.497732 0.235440
C118  C     C_R   0.643902 0.147220 0.502565 0.229097
C119  C     C_R   0.643900 0.852778 0.497403 0.227368
C120  C     C_R   0.356108 0.147229 0.502599 0.227068
C121  C     C_R   0.000001 0.499957 0.223398 0.275852
C122  C     C_R   0.000002 0.500038 0.776603 0.276486
C123  C     C_R   0.500009 0.000045 0.223397 0.276481
C124  C     C_R   0.499994 0.999951 0.776602 0.275851
C125  C     C_R   0.017769 0.469474 0.872722 0.557726
C126  C     C_R   0.982235 0.530522 0.127279 0.557939
C127  C     C_R   0.982236 0.530570 0.872775 0.569649
C128  C     C_R   0.017770 0.469426 0.127226 0.570014
C129  C     C_R   0.517753 0.969416 0.872747 0.570014
C130  C     C_R   0.482252 0.030580 0.127252 0.569639
C131  C     C_R   0.482235 0.030520 0.872748 0.557922
C132  C     C_R   0.517769 0.969476 0.127251 0.557721
N13   N     N_R   0.000003 0.500028 0.841973 -0.445707
N14   N     N_R   0.000001 0.499968 0.158028 -0.445550
N15   N     N_R   0.499991 0.999961 0.841971 -0.445524
N16   N     N_R   0.500013 0.000035 0.158028 -0.445682
C133  C     C_R   0.981800 0.531096 0.936245 -0.035847
C134  C     C_R   0.018206 0.468901 0.063756 -0.035775
C135  C     C_R   0.018205 0.468925 0.936190 -0.027551
C136  C     C_R   0.981799 0.531071 0.063811 -0.027387
C137  C     C_R   0.481803 0.031072 0.936217 -0.027228
C138  C     C_R   0.518202 0.968924 0.063782 -0.027408
C139  C     C_R   0.518193 0.968894 0.936216 -0.035861
C140  C     C_R   0.481813 0.031103 0.063783 -0.035916
C141  C     C_R   0.000003 0.500004 0.968074 -0.007642
C142  C     C_R   0.000003 0.499992 0.031927 -0.007649
C143  C     C_R   0.500000 0.999990 0.968073 -0.007657
C144  C     C_R   0.500005 0.000006 0.031926 -0.007651
C145  C     C_R   0.963738 0.562010 0.968634 -0.133923
C146  C     C_R   0.036268 0.437986 0.031367 -0.133840
C147  C     C_R   0.036267 0.437998 0.968524 -0.136205
C148  C     C_R   0.963738 0.561998 0.031477 -0.136240
C149  C     C_R   0.463751 0.062005 0.968578 -0.136141
C150  C     C_R   0.536254 0.937991 0.031421 -0.136074
C151  C     C_R   0.536249 0.937976 0.968577 -0.134007
C152  C     C_R   0.463756 0.062020 0.031421 -0.134119
O33   O     O_2   0.034623 0.439409 0.842155 -0.520974
O34   O     O_2   0.965380 0.560586 0.157846 -0.521496
O35   O     O_2   0.965379 0.560644 0.842260 -0.492632
O36   O     O_2   0.034628 0.439354 0.157742 -0.492910
O37   O     O_2   0.534603 0.939339 0.842204 -0.492835
O38   O     O_2   0.465404 0.060659 0.157794 -0.492592
O39   O     O_2   0.465385 0.060587 0.842207 -0.521887
O40   O     O_2   0.534617 0.939408 0.157792 -0.521323
H33   H     H_    0.949501 0.586378 0.945527 0.199566
H34   H     H_    0.050504 0.413619 0.054474 0.199517
H35   H     H_    0.050504 0.413639 0.945374 0.197571
H36   H     H_    0.949501 0.586357 0.054627 0.197480
H37   H     H_    0.449519 0.086366 0.945449 0.197419
H38   H     H_    0.550485 0.913630 0.054550 0.197533
H39   H     H_    0.550478 0.913604 0.945449 0.199487
H40   H     H_    0.449528 0.086392 0.054549 0.199515
C153  C     C_R   0.036825 0.499969 0.255770 -0.223870
C154  C     C_R   0.963177 0.500037 0.744232 -0.223552
C155  C     C_R   0.963177 0.499976 0.255789 -0.217287
C156  C     C_R   0.036825 0.500013 0.744210 -0.217164
C157  C     C_R   0.536831 0.000007 0.255775 -0.217010
C158  C     C_R   0.463171 0.999983 0.744226 -0.217139
C159  C     C_R   0.463183 0.000049 0.255784 -0.223884
C160  C     C_R   0.536819 0.999957 0.744214 -0.224199
H41   H     H_    0.065872 0.500189 0.231783 0.184761
H42   H     H_    0.934131 0.499825 0.768221 0.184227
H43   H     H_    0.934131 0.499771 0.231817 0.185899
H44   H     H_    0.065872 0.500213 0.768180 0.185370
H45   H     H_    0.565880 0.000197 0.231793 0.185890
H46   H     H_    0.434123 0.999788 0.768210 0.186405
H47   H     H_    0.434138 0.999841 0.231807 0.183767
H48   H     H_    0.565865 0.000172 0.768189 0.184312
I1    I     I_    0.096397 0.500161 0.357702 -0.186976
I2    I     I_    0.903604 0.499883 0.642305 -0.198791
I3    I     I_    0.903601 0.500109 0.357741 -0.197689
I4    I     I_    0.096398 0.499884 0.642254 -0.209145
I5    I     I_    0.596397 0.999822 0.357712 -0.196973
I6    I     I_    0.403602 0.000171 0.642291 -0.185781
I7    I     I_    0.403603 0.999870 0.357734 -0.210428
I8    I     I_    0.596397 0.000173 0.642258 -0.198390
F1    F     F_    0.296352 0.653610 0.437620 -0.579124
F2    F     F_    0.702654 0.347616 0.445597 -0.578069
F3    F     F_    0.702635 0.652382 0.554373 -0.578054
F4    F     F_    0.297369 0.347621 0.445605 -0.577157
F5    F     F_    0.796317 0.153644 0.562482 -0.579644
F6    F     F_    0.202622 0.847647 0.554307 -0.577478
F7    F     F_    0.203671 0.153649 0.562482 -0.578616
F8    F     F_    0.796343 0.846364 0.437549 -0.579610
F9    F     F_    0.918338 0.405497 0.392608 -0.613970
F10   F     F_    0.081734 0.594513 0.607339 -0.613487
F11   F     F_    0.081721 0.405536 0.392582 -0.609143
F12   F     F_    0.918315 0.594494 0.607412 -0.608384
F13   F     F_    0.418295 0.905534 0.607393 -0.613435
F14   F     F_    0.581784 0.094470 0.392660 -0.612970
F15   F     F_    0.581764 0.905525 0.607323 -0.608622
F16   F     F_    0.418261 0.094497 0.392682 -0.607913

loop_
_geom_bond_atom_site_label_1
_geom_bond_atom_site_label_2
_geom_bond_distance
_ccdc_geom_bond_type
C5    C157  1.407799 A    
C11   C89   1.477228 S    
C131  N15   1.376052 A    
C88   C96   1.410831 A    
O12   C13   1.292431 A    
C9    C91   1.477223 S    
Cu2   N1    1.996067 S    
C19   C51   1.401942 A    
C37   C45   1.412022 A    
C10   C92   1.477226 S    
Cu3   Cu4   2.656812 S    
C102  C110  1.393242 A    
C44   C47   1.413100 A    
C151  H39   1.082961 S    
C109  C117  1.397920 A    
C46   C54   1.408678 A    
C128  O36   1.348796 S    
C61   F5    1.357715 S    
O4    C9    1.291537 A    
C22   C54   1.401944 A    
O1    Cu1   1.945414 S    
O15   C16   1.291636 A    
C13   C95   1.477257 S    
C132  C138  1.415539 A    
C2    C154  1.407810 A    
O16   C15   1.291518 A    
C14   C96   1.477248 S    
C106  C114  1.399160 A    
C124  N15   1.457736 S    
C1    C153  1.407810 A    
C64   F8    1.357718 S    
N10   C117  1.432867 S    
C105  C113  1.397921 A    
N9    C118  1.435700 S    
C79   C87   1.394761 A    
C23   N11   1.368880 A    
C146  H34   1.082959 S    
C38   C62   1.410066 A    
C152  H40   1.082961 S    
O12   Cu4   1.945524 S    
C145  C148  1.401402 A    
C37   C61   1.410387 A    
N7    C116  1.432871 S    
C57   F1    1.357721 S    
O16   Cu3   1.945472 S    
C79   C119  1.399873 A    
C39   C63   1.410384 A    
C139  C143  1.407958 A    
C74   C82   1.394781 A    
C38   C46   1.412358 A    
C49   C66   1.403354 A    
C62   C66   1.394174 A    
C63   C67   1.394288 A    
C29   C37   1.407499 A    
C101  C109  1.393456 A    
C131  C137  1.415537 A    
C127  O35   1.348798 S    
C127  N13   1.376036 A    
C105  H25   1.082869 S    
C30   C38   1.407235 A    
C104  H24   1.081911 S    
C100  C108  1.393437 A    
C41   C49   1.408292 A    
O3    C10   1.291537 A    
C27   O27   1.349153 S    
C134  C146  1.407536 A    
C65   H1    1.083244 S    
C108  H28   1.082868 S    
C45   C53   1.408288 A    
C27   C35   1.407238 A    
O5    C11   1.291522 A    
C124  C158  1.395192 A    
C26   C34   1.407235 A    
O6    C12   1.291639 A    
C132  N16   1.376052 A    
O11   C14   1.292428 A    
C112  C120  1.399175 A    
C42   C45   1.413100 A    
C18   C50   1.401941 A    
C69   H5    1.083248 S    
C41   C46   1.413103 A    
C24   C56   1.401860 A    
N11   C120  1.435700 S    
C75   C83   1.394740 A    
C155  H43   1.082912 S    
C160  H48   1.082910 S    
O4    Cu2   1.945524 S    
N8    C28   1.368952 A    
C43   C48   1.413102 A    
C4    I4    2.123377 S    
C57   C69   1.394288 A    
C108  C116  1.397919 A    
O9    C13   1.291619 A    
C62   F6    1.357720 S    
N12   C119  1.435696 S    
C133  C145  1.407537 A    
C20   N8    1.367695 A    
C59   F3    1.357718 S    
C79   H15   1.082997 S    
C21   N9    1.368877 A    
C81   F9    1.356729 S    
C47   C55   1.408285 A    
C48   C56   1.408293 A    
O1    C9    1.292510 A    
C44   C52   1.408670 A    
C126  N14   1.376048 A    
C88   F16   1.356732 S    
N8    C115  1.432875 S    
N9    C29   1.370160 A    
C42   C50   1.408672 A    
C12   C90   1.477262 S    
C140  C144  1.407958 A    
C130  N16   1.376036 A    
C17   N5    1.368878 A    
C84   F12   1.356730 S    
C80   C88   1.394759 A    
C73   H9    1.082980 S    
C123  C159  1.395188 A    
C147  H35   1.082961 S    
C4    C156  1.407789 A    
N7    C27   1.368951 A    
C16   C94   1.477258 S    
C134  C142  1.407960 A    
C20   O20   1.349625 S    
C128  C134  1.415551 A    
C32   O32   1.349145 S    
C103  C111  1.393258 A    
C102  H22   1.081911 S    
C85   F13   1.356728 S    
C35   C59   1.410069 A    
C136  C148  1.407542 A    
C68   H4    1.083246 S    
C149  H37   1.082961 S    
C76   C84   1.394743 A    
C131  O39   1.348795 S    
C123  N16   1.457740 S    
C7    I7    2.123362 S    
C71   H7    1.083244 S    
C130  O38   1.348797 S    
O13   Cu4   1.945477 S    
C1    I1    2.123410 S    
C34   C42   1.412354 A    
C33   C41   1.412023 A    
C93   C101  1.407216 A    
O14   Cu3   1.945472 S    
C109  H29   1.082867 S    
C77   C85   1.394729 A    
C60   C72   1.394174 A    
C154  H42   1.082910 S    
O9    Cu3   1.945414 S    
C3    I3    2.123394 S    
C150  H38   1.082961 S    
N10   C30   1.368951 A    
C40   C64   1.410391 A    
C91   C99   1.407219 A    
C121  C155  1.395184 A    
C29   O29   1.349141 S    
C53   C70   1.403348 A    
C34   C58   1.410063 A    
C111  C119  1.399170 A    
C39   C47   1.412019 A    
C40   C48   1.412028 A    
N11   C31   1.370157 A    
O8    Cu1   1.945472 S    
C148  H36   1.082961 S    
C87   C95   1.410835 A    
C60   F4    1.357713 S    
C21   C53   1.401863 A    
C82   C90   1.410826 A    
C23   O23   1.349698 S    
C70   H6    1.083240 S    
C82   F10   1.356725 S    
C59   C71   1.394176 A    
C78   H14   1.082997 S    
C130  C140  1.415552 A    
C4    N2    1.384326 A    
C87   F15   1.356733 S    
O10   C14   1.291619 A    
C73   C113  1.398471 A    
C143  C144  1.423925 A    
C98   H18   1.081906 S    
C135  C147  1.407545 A    
C138  C144  1.407941 A    
C17   C49   1.401867 A    
C6    N4    1.384323 A    
O5    Cu2   1.945477 S    
C22   N10   1.367696 A    
C112  H32   1.082899 S    
Cu1   Cu2   2.656812 S    
N6    C26   1.368949 A    
C157  H45   1.082912 S    
C126  O34   1.348796 S    
C1    N1    1.384323 A    
C36   C44   1.412350 A    
C135  C141  1.407940 A    
C125  O33   1.348796 S    
C83   F11   1.356730 S    
C104  C112  1.393253 A    
C28   C36   1.407236 A    
C15   C93   1.477233 S    
C17   O17   1.349703 S    
N6    C113  1.432871 S    
C18   N6    1.367694 A    
C66   H2    1.083239 S    
C3    C155  1.407786 A    
C24   O24   1.349704 S    
C129  C139  1.415552 A    
C31   C39   1.407500 A    
C63   F7    1.357715 S    
C51   C68   1.403132 A    
C22   O22   1.349628 S    
C99   C107  1.393432 A    
C86   F14   1.356723 S    
C50   C65   1.403127 A    
C100  H20   1.081875 S    
C35   C43   1.412358 A    
C150  C151  1.401404 A    
C129  O37   1.348797 S    
C74   H10   1.082997 S    
C61   C65   1.394288 A    
O15   Cu4   1.945467 S    
C43   C51   1.408679 A    
C56   C71   1.403353 A    
C99   H19   1.081879 S    
O7    Cu2   1.945467 S    
C94   C102  1.406886 A    
C67   H3    1.083241 S    
C8    I8    2.123406 S    
C153  H41   1.082910 S    
C81   C89   1.411199 A    
C24   N12   1.368879 A    
C8    C160  1.407806 A    
C8    N4    1.384321 A    
C77   C117  1.398467 A    
C78   C118  1.399881 A    
C78   C86   1.394777 A    
C137  C149  1.407544 A    
O2    Cu2   1.945414 S    
C31   O31   1.349139 S    
C52   C67   1.403125 A    
C73   C81   1.394730 A    
C5    N3    1.384322 A    
O13   C15   1.292531 A    
Cu4   N3    1.996067 S    
C75   C115  1.398482 A    
C23   C55   1.401860 A    
C139  C151  1.407537 A    
O14   C16   1.292414 A    
C74   C114  1.399878 A    
C5    I5    2.123398 S    
O2    C10   1.292510 A    
N5    C25   1.370159 A    
C25   O25   1.349145 S    
C145  H33   1.082960 S    
C128  N14   1.376034 A    
C18   O18   1.349627 S    
C111  H31   1.082898 S    
C33   C57   1.410389 A    
C20   C52   1.401940 A    
C83   C91   1.411200 A    
C76   H12   1.082980 S    
C138  C150  1.407544 A    
C84   C92   1.411202 A    
C3    N1    1.384327 A    
C137  C143  1.407942 A    
C77   H13   1.082980 S    
Cu1   N2    1.996067 S    
C129  N15   1.376034 A    
O6    Cu1   1.945472 S    
C126  C136  1.415536 A    
C107  C115  1.397923 A    
C2    I2    2.123367 S    
C156  H44   1.082912 S    
Cu3   N4    1.996067 S    
C2    N2    1.384322 A    
C97   H17   1.081869 S    
C132  O40   1.348798 S    
C28   O28   1.349144 S    
C58   C70   1.394175 A    
C124  C160  1.395191 A    
C19   N7    1.367700 A    
N12   C32   1.370161 A    
C122  C154  1.395192 A    
C85   C93   1.411199 A    
C6    C158  1.407794 A    
C159  H47   1.082914 S    
C121  C153  1.395192 A    
C25   C33   1.407499 A    
C64   C68   1.394290 A    
O11   Cu3   1.945524 S    
C101  H21   1.081873 S    
C36   C60   1.410062 A    
C95   C103  1.406888 A    
C103  H23   1.081914 S    
C21   O21   1.349701 S    
C72   H8    1.083237 S    
C32   C40   1.407501 A    
C122  N13   1.457738 S    
C140  C152  1.407539 A    
C146  C147  1.401402 A    
C149  C152  1.401402 A    
C96   C104  1.406886 A    
C121  N14   1.457731 S    
C98   C106  1.393242 A    
C75   H11   1.082982 S    
C58   F2    1.357717 S    
O7    C12   1.292411 A    
C127  C133  1.415549 A    
C125  N13   1.376053 A    
C55   C72   1.403348 A    
C106  H26   1.082899 S    
C6    I6    2.123418 S    
C136  C142  1.407943 A    
C107  H27   1.082870 S    
C80   C120  1.399877 A    
C92   C100  1.407218 A    
C80   H16   1.082997 S    
C122  C156  1.395182 A    
N5    C114  1.435698 S    
C89   C97   1.407214 A    
C26   O26   1.349148 S    
O8    C11   1.292527 A    
O3    Cu1   1.945524 S    
O10   Cu4   1.945414 S    
C110  C118  1.399166 A    
C110  H30   1.082900 S    
C125  C135  1.415536 A    
C76   C116  1.398479 A    
C54   C69   1.403130 A    
C97   C105  1.393450 A    
C7    C159  1.407806 A    
C7    N3    1.384321 A    
C86   C94   1.410825 A    
C90   C98   1.406886 A    
C30   O30   1.349150 S    
C123  C157  1.395191 A    
C19   O19   1.349631 S    
C133  C141  1.407960 A    
C141  C142  1.423922 A    
C158  H46   1.082913 S    
