data_mof_unit_pretest_554.cif
_audit_creation_date              2012-12-11T14:42:25-0500
_audit_creation_method            fapswitch 2.2
_symmetry_space_group_name_H-M    P1
_symmetry_Int_Tables_number       1
_space_group_crystal_system       triclinic
_cell_length_a                    18.956509
_cell_length_b                    10.962522
_cell_length_c                    18.737807
_cell_angle_alpha                 89.63546
_cell_angle_beta                  90.74343
_cell_angle_gamma                 90.206125
_cell_volume                      3893.49451638

loop_
_atom_site_label
_atom_site_type_symbol
_atom_type_description
_atom_site_fract_x
_atom_site_fract_y
_atom_site_fract_z
_atom_type_partial_charge
C1    C     C_R   0.728026 0.953219 0.852988 0.541051
C2    C     C_R   0.271987 0.953706 0.146960 0.542833
C3    C     C_R   0.228027 0.453215 0.852986 0.541041
C4    C     C_R   0.771989 0.453707 0.146959 0.542832
C5    C     C_R   0.689648 0.444197 0.041855 -0.146435
C6    C     C_R   0.310630 0.443905 0.957627 -0.146435
C7    C     C_R   0.189675 0.944279 0.041837 -0.146407
C8    C     C_R   0.810616 0.943953 0.957638 -0.146403
C9    C     C_R   0.748034 0.398125 0.079924 0.029907
C10   C     C_R   0.252138 0.397163 0.920002 0.029633
C11   C     C_R   0.248024 0.898126 0.079926 0.029891
C12   C     C_R   0.752142 0.897163 0.920002 0.029629
C13   C     C_R   0.790822 0.309777 0.048369 -0.124839
C14   C     C_R   0.209476 0.308108 0.952037 -0.126601
C15   C     C_R   0.290769 0.809700 0.048391 -0.124838
C16   C     C_R   0.709498 0.808056 0.952026 -0.126588
C17   C     C_R   0.780896 0.279520 0.977423 -0.129581
C18   C     C_R   0.219567 0.277853 0.023125 -0.129547
C19   C     C_R   0.280844 0.779438 0.977443 -0.129587
C20   C     C_R   0.719593 0.777782 0.023113 -0.129538
C21   C     C_R   0.727629 0.335719 0.936787 0.028094
C22   C     C_R   0.272880 0.334730 0.063291 0.027001
C23   C     C_R   0.227623 0.835716 0.936789 0.028081
C24   C     C_R   0.772885 0.834715 0.063290 0.026994
C25   C     C_R   0.447465 0.259406 0.554112 -0.139593
C26   C     C_R   0.427742 0.261409 0.482769 -0.152013
C27   C     C_R   0.947473 0.759415 0.554109 -0.139603
C28   C     C_R   0.927752 0.761418 0.482766 -0.152001
C29   C     C_R   0.448850 0.167854 0.437939 0.024853
C30   C     C_R   0.488218 0.162513 0.580239 0.026976
C31   C     C_R   0.948854 0.667858 0.437939 0.024872
C32   C     C_R   0.988219 0.662516 0.580238 0.026984
C33   C     C_R   0.483161 0.064823 0.465963 -0.141954
C34   C     C_R   0.502075 0.061566 0.537218 -0.145064
C35   C     C_R   0.983160 0.564825 0.465964 -0.141952
C36   C     C_R   0.002073 0.561567 0.537219 -0.145059
C37   C     C_R   0.815381 0.408143 0.545664 -0.150828
C38   C     C_R   0.208336 0.317351 0.470109 -0.133517
C39   C     C_R   0.315381 0.908134 0.545662 -0.150824
C40   C     C_R   0.708346 0.817347 0.470110 -0.133529
C41   C     C_R   0.820952 0.415482 0.472774 -0.144091
C42   C     C_R   0.207508 0.330991 0.542731 -0.148875
C43   C     C_R   0.320950 0.915472 0.472772 -0.144090
C44   C     C_R   0.707514 0.830991 0.542732 -0.148885
C45   C     C_R   0.529977 0.177240 0.850782 0.545312
C46   C     C_R   0.469969 0.177946 0.149190 0.556876
C47   C     C_R   0.029976 0.677239 0.850782 0.545308
C48   C     C_R   0.969970 0.677947 0.149190 0.556876
C49   C     C_R   0.761019 0.434543 0.429221 0.033355
C50   C     C_R   0.248909 0.420917 0.575178 0.025386
C51   C     C_R   0.261017 0.934545 0.429221 0.033357
C52   C     C_R   0.748909 0.920921 0.575177 0.025387
C53   C     C_R   0.693990 0.449767 0.459846 -0.006700
C54   C     C_R   0.297232 0.491518 0.533434 -0.005715
C55   C     C_R   0.193990 0.949785 0.459849 -0.006681
C56   C     C_R   0.797229 0.991522 0.533432 -0.005719
C57   C     C_R   0.689453 0.441683 0.534303 -0.112039
C58   C     C_R   0.293800 0.480690 0.459169 -0.127132
C59   C     C_R   0.189454 0.941695 0.534306 -0.112025
C60   C     C_R   0.793798 0.980688 0.459168 -0.127131
C61   C     C_R   0.749252 0.415214 0.576399 0.005550
C62   C     C_R   0.251074 0.392743 0.427975 0.009965
C63   C     C_R   0.249252 0.915215 0.576399 0.005555
C64   C     C_R   0.751077 0.892739 0.427975 0.009960
C65   C     C_R   0.723999 0.311971 0.859997 0.566550
C66   C     C_R   0.276194 0.311573 0.140207 0.570305
C67   C     C_R   0.223996 0.811962 0.859998 0.566538
C68   C     C_R   0.776195 0.811568 0.140207 0.570306
C69   C     C_R   0.728304 0.956360 0.647032 0.544922
C70   C     C_R   0.273743 0.958667 0.354181 0.534042
C71   C     C_R   0.228305 0.456358 0.647033 0.544924
C72   C     C_R   0.773744 0.458668 0.354181 0.534038
C73   C     C_R   0.527553 0.175662 0.646147 0.548870
C74   C     C_R   0.435649 0.179740 0.362160 0.567785
C75   C     C_R   0.027553 0.675662 0.646147 0.548874
C76   C     C_R   0.935650 0.679741 0.362160 0.567782
C77   C     C_R   0.739597 0.364802 0.647196 0.552569
C78   C     C_R   0.260754 0.359903 0.354305 0.550475
C79   C     C_R   0.239597 0.864802 0.647196 0.552575
C80   C     C_R   0.760755 0.859900 0.354305 0.550474
C81   C     C_2   0.497610 0.167290 0.920870 -0.108030
C82   C     C_2   0.502560 0.169265 0.079191 -0.109002
C83   C     C_2   0.997607 0.667283 0.920870 -0.108025
C84   C     C_2   0.002561 0.669269 0.079192 -0.108998
C85   C     C_2   0.492915 0.069458 0.038860 -0.156623
C86   C     C_2   0.509632 0.069282 0.962634 -0.156668
C87   C     C_2   0.992927 0.569456 0.038863 -0.156635
C88   C     C_2   0.009642 0.569281 0.962637 -0.156677
C89   C     C_R   0.679426 0.413144 0.970326 -0.137715
C90   C     C_R   0.321048 0.412749 0.029266 -0.139077
C91   C     C_R   0.179458 0.913229 0.970309 -0.137685
C92   C     C_R   0.821033 0.912795 0.029276 -0.139048
Cr1   Cr    Cr6+3 0.769270 0.163730 0.750710 0.995989
Cr2   Cr    Cr6+3 0.230730 0.163730 0.249290 0.995092
Cr3   Cr    Cr6+3 0.269270 0.663730 0.750710 0.995996
Cr4   Cr    Cr6+3 0.730730 0.663730 0.249290 0.995098
Cr5   Cr    Cr6+3 0.612620 0.009790 0.748780 1.011016
Cr6   Cr    Cr6+3 0.387380 0.009790 0.251220 1.008096
Cr7   Cr    Cr6+3 0.112620 0.509790 0.748780 1.011008
Cr8   Cr    Cr6+3 0.887380 0.509790 0.251220 1.008085
Cr9   Cr    Cr6+3 0.614160 0.322500 0.747710 1.009154
Cr10  Cr    Cr6+3 0.385840 0.322500 0.252290 1.001726
Cr11  Cr    Cr6+3 0.114160 0.822500 0.747710 1.009155
Cr12  Cr    Cr6+3 0.885840 0.822500 0.252290 1.001736
H1    H     H_    0.471234 0.986102 0.061454 0.157259
H2    H     H_    0.533229 0.987336 0.941221 0.157242
H3    H     H_    0.971260 0.486093 0.061460 0.157240
H4    H     H_    0.033253 0.487344 0.941229 0.157232
H5    H     H_    0.872970 0.406368 0.450500 0.136617
H6    H     H_    0.171964 0.273857 0.573234 0.132137
H7    H     H_    0.372967 0.906352 0.450498 0.136619
H8    H     H_    0.671973 0.773858 0.573235 0.132142
H9    H     H_    0.638932 0.448027 0.559905 0.144066
H10   H     H_    0.326739 0.535567 0.424847 0.130915
H11   H     H_    0.138934 0.948044 0.559909 0.144063
H12   H     H_    0.826733 0.035567 0.424847 0.130919
H13   H     H_    0.526171 0.251137 0.056639 0.108679
H14   H     H_    0.472376 0.247771 0.942348 0.109061
H15   H     H_    0.026162 0.751146 0.056638 0.108695
H16   H     H_    0.972364 0.747757 0.942345 0.109069
H17   H     H_    0.636000 0.453908 0.940729 0.131685
H18   H     H_    0.364423 0.454140 0.058584 0.131328
H19   H     H_    0.136068 0.954064 0.940698 0.131694
H20   H     H_    0.864390 0.954237 0.058604 0.131330
H21   H     H_    0.654331 0.508798 0.066035 0.116143
H22   H     H_    0.345728 0.509439 0.933074 0.116755
H23   H     H_    0.154388 0.008945 0.066002 0.116142
H24   H     H_    0.845699 0.009533 0.933095 0.116748
H25   H     H_    0.835100 0.269611 0.076968 0.133530
H26   H     H_    0.165102 0.267687 0.923750 0.132168
H27   H     H_    0.335012 0.769470 0.077010 0.133537
H28   H     H_    0.665139 0.767602 0.923731 0.132174
H29   H     H_    0.817189 0.216398 0.953443 0.124135
H30   H     H_    0.183199 0.214559 0.047644 0.124415
H31   H     H_    0.317102 0.716246 0.953476 0.124132
H32   H     H_    0.683245 0.714431 0.047624 0.124419
H33   H     H_    0.435818 0.337239 0.587175 0.130662
H34   H     H_    0.400999 0.339702 0.461012 0.131356
H35   H     H_    0.935830 0.837250 0.587171 0.130662
H36   H     H_    0.901013 0.839713 0.461009 0.131359
H37   H     H_    0.498734 0.989671 0.432460 0.133953
H38   H     H_    0.532991 0.985066 0.556716 0.136398
H39   H     H_    0.998729 0.489670 0.432461 0.133949
H40   H     H_    0.032984 0.485064 0.556718 0.136395
H41   H     H_    0.862205 0.388814 0.577519 0.134729
H42   H     H_    0.176104 0.245474 0.447303 0.138179
H43   H     H_    0.362204 0.888798 0.577517 0.134729
H44   H     H_    0.676123 0.745464 0.447303 0.138189
O1    O     O_R   0.784320 0.290430 0.830510 -0.513749
O2    O     O_R   0.215680 0.290430 0.169490 -0.510129
O3    O     O_R   0.284320 0.790430 0.830510 -0.513718
O4    O     O_R   0.715680 0.790430 0.169490 -0.510105
O5    O     O_R   0.554640 0.080370 0.673500 -0.503210
O6    O     O_R   0.445360 0.080370 0.326500 -0.504540
O7    O     O_R   0.054640 0.580370 0.673500 -0.503210
O8    O     O_R   0.945360 0.580370 0.326500 -0.504546
O9    O     O_R   0.543920 0.282180 0.666790 -0.525248
O10   O     O_R   0.456080 0.282180 0.333210 -0.522973
O11   O     O_R   0.043920 0.782180 0.666790 -0.525250
O12   O     O_R   0.956080 0.782180 0.333210 -0.522940
O13   O     O_R   0.679040 0.374160 0.674430 -0.499578
O14   O     O_R   0.320960 0.374160 0.325570 -0.520306
O15   O     O_R   0.179040 0.874160 0.674430 -0.499579
O16   O     O_R   0.820960 0.874160 0.325570 -0.520305
O17   O     O_3   0.665350 0.165340 0.749070 -0.260305
O18   O     O_3   0.334650 0.165340 0.250930 -0.287420
O19   O     O_3   0.165350 0.665340 0.749070 -0.260306
O20   O     O_3   0.834650 0.665340 0.250930 -0.287426
O21   O     O_R   0.762640 0.040960 0.825200 -0.522165
O22   O     O_R   0.237360 0.040960 0.174800 -0.520969
O23   O     O_R   0.262640 0.540960 0.825200 -0.522169
O24   O     O_R   0.737360 0.540960 0.174800 -0.520973
O25   O     O_R   0.667400 0.923970 0.829950 -0.523123
O26   O     O_R   0.332600 0.923970 0.170050 -0.521007
O27   O     O_R   0.167400 0.423970 0.829950 -0.523132
O28   O     O_R   0.832600 0.423970 0.170050 -0.521017
O29   O     O_R   0.553960 0.081340 0.821780 -0.496916
O30   O     O_R   0.446040 0.081340 0.178220 -0.489778
O31   O     O_R   0.053960 0.581340 0.821780 -0.496919
O32   O     O_R   0.946040 0.581340 0.178220 -0.489783
O33   O     O_R   0.543180 0.283240 0.826740 -0.527309
O34   O     O_R   0.456820 0.283240 0.173260 -0.522088
O35   O     O_R   0.043180 0.783240 0.826740 -0.527296
O36   O     O_R   0.956820 0.783240 0.173260 -0.522084
O37   O     O_R   0.678360 0.375140 0.822710 -0.501848
O38   O     O_R   0.321640 0.375140 0.177290 -0.499330
O39   O     O_R   0.178360 0.875140 0.822710 -0.501853
O40   O     O_R   0.821640 0.875140 0.177290 -0.499332
O41   O     O_R   0.785050 0.289380 0.670560 -0.535967
O42   O     O_R   0.214950 0.289380 0.329440 -0.521331
O43   O     O_R   0.285050 0.789380 0.670560 -0.535969
O44   O     O_R   0.714950 0.789380 0.329440 -0.521329
O45   O     O_R   0.763320 0.039990 0.676930 -0.518191
O46   O     O_R   0.236680 0.039990 0.323070 -0.516881
O47   O     O_R   0.263320 0.539990 0.676930 -0.518190
O48   O     O_R   0.736680 0.539990 0.323070 -0.516877
O49   O     O_R   0.668130 0.922920 0.670000 -0.519891
O50   O     O_R   0.331870 0.922920 0.330000 -0.529702
O51   O     O_R   0.168130 0.422920 0.670000 -0.519889
O52   O     O_R   0.831870 0.422920 0.330000 -0.529700
C93   C     C_3   0.628964 0.469941 0.412633 -0.266854
C94   C     C_3   0.558953 0.453272 0.449630 -0.461437
H45   H     H_    0.557078 0.361808 0.475035 0.184194
H46   H     H_    0.552678 0.525522 0.490202 0.131578
H47   H     H_    0.515397 0.461331 0.409765 0.167781
H48   H     H_    0.629890 0.563927 0.390319 0.169844
H49   H     H_    0.629882 0.404029 0.367770 0.168552
C95   C     C_3   0.350071 0.579690 0.566771 -0.258496
C96   C     C_3   0.411119 0.620198 0.519815 -0.484898
H50   H     H_    0.434999 0.539385 0.495406 0.149024
H51   H     H_    0.392764 0.683905 0.477330 0.150854
H52   H     H_    0.451655 0.668025 0.552686 0.137950
H53   H     H_    0.321174 0.662065 0.581042 0.209172
H54   H     H_    0.374143 0.536785 0.615089 0.159911
C97   C     C_3   0.128965 0.969983 0.412641 -0.266885
C98   C     C_3   0.058963 0.953400 0.449647 -0.461514
H55   H     H_    0.057053 0.861953 0.475053 0.184196
H56   H     H_    0.052719 0.025649 0.490220 0.131591
H57   H     H_    0.015413 0.961511 0.409787 0.167718
H58   H     H_    0.129909 0.063950 0.390312 0.169880
H59   H     H_    0.129859 0.904056 0.367791 0.168564
C99   C     C_3   0.850062 0.079708 0.566767 -0.258494
C100  C     C_3   0.911111 0.120212 0.519813 -0.484906
H60   H     H_    0.934998 0.039395 0.495416 0.149036
H61   H     H_    0.892758 0.183905 0.477319 0.150858
H62   H     H_    0.951642 0.168056 0.552683 0.137949
H63   H     H_    0.821158 0.162082 0.581028 0.209167
H64   H     H_    0.874133 0.036817 0.615089 0.159930

loop_
_geom_bond_atom_site_label_1
_geom_bond_atom_site_label_2
_ccdc_geom_bond_type
C58   C62   A    
C87   C88   S    
Cr6   O6    S    
Cr11  O19   S    
C95   H53   S    
C55   C59   A    
C80   O44   A    
C93   C94   S    
C14   C18   A    
Cr1   O1    S    
C35   C36   A    
C28   H36   S    
C84   C87   D    
C97   C98   S    
Cr11  O11   S    
Cr2   O18   S    
C32   C75   S    
C31   C76   S    
C100  H62   S    
C45   O33   A    
C21   C89   A    
C85   C86   S    
Cr3   O43   S    
C15   C19   A    
C78   O42   A    
Cr1   O21   S    
C50   C54   A    
C94   H46   S    
C46   O30   A    
C13   C17   A    
C57   H9    S    
Cr11  O35   S    
C32   C36   A    
C56   C60   A    
C98   H56   S    
C66   O2    A    
C92   H20   S    
C55   C97   S    
Cr6   O26   S    
C85   H1    S    
Cr12  O20   S    
C19   H31   S    
Cr4   O4    S    
C73   O9    A    
C96   H52   S    
C74   O6    A    
Cr7   O31   S    
C23   C67   S    
C57   C61   A    
C59   H11   S    
C9    C13   A    
C22   C66   S    
C47   O31   A    
C52   C69   S    
C69   O45   A    
C46   C82   S    
C11   C15   A    
C8    H24   S    
C38   H42   S    
C12   C16   A    
C29   C33   A    
C61   C77   S    
C95   C96   S    
C49   C72   S    
Cr7   O7    S    
Cr8   O28   S    
C95   H54   S    
C93   H48   S    
C98   H57   S    
C8    C92   A    
C51   C70   S    
Cr5   O5    S    
Cr6   O30   S    
C18   C22   A    
C51   C55   A    
C81   C86   D    
C2    O26   A    
C16   C20   A    
C71   O47   A    
C88   H4    S    
C70   O46   A    
C44   C52   A    
C83   C88   D    
Cr1   O17   S    
C70   O50   A    
C91   H19   S    
C69   O49   A    
C64   C80   S    
Cr10  O10   S    
C86   H2    S    
C1    C12   S    
C43   H7    S    
Cr12  O12   S    
Cr9   O37   S    
C2    C11   S    
C97   H59   S    
C41   C49   A    
C67   O39   A    
C96   H50   S    
Cr7   O19   S    
C77   O13   A    
Cr12  O40   S    
C65   O37   A    
Cr5   O25   S    
C94   H45   S    
Cr6   O50   S    
C67   O3    A    
Cr10  O34   S    
Cr5   O49   S    
Cr11  O39   S    
C98   H55   S    
C6    H22   S    
C100  H60   S    
C47   O35   A    
C10   C14   A    
C48   O36   A    
C30   C73   S    
C30   C34   A    
C19   C23   A    
C63   C79   S    
C29   C74   S    
C41   H5    S    
C33   H37   S    
C25   C26   A    
C6    C90   A    
C81   H14   S    
C94   H47   S    
C80   O16   A    
C25   H33   S    
C48   C84   S    
Cr3   O19   S    
C83   H16   S    
Cr4   O48   S    
C7    C11   A    
C50   C71   S    
Cr2   O42   S    
C37   H41   S    
C5    C9    A    
C68   O4    A    
C72   O52   A    
C34   H38   S    
C22   C90   A    
Cr5   O29   S    
C99   H64   S    
C8    C12   A    
C1    O25   A    
C17   C21   A    
Cr4   O20   S    
C33   C34   A    
C93   H49   S    
Cr7   O27   S    
Cr10  O38   S    
C20   H32   S    
C74   O10   A    
Cr9   O17   S    
Cr6   O18   S    
C2    O22   A    
Cr8   O52   S    
C3    O27   A    
Cr12  O36   S    
C42   C50   A    
C78   O14   A    
C54   C95   S    
C66   O38   A    
C17   H29   S    
C24   C92   A    
C23   C91   A    
C60   H12   S    
Cr3   O3    S    
Cr8   O8    S    
C73   O5    A    
Cr8   O32   S    
C44   H8    S    
C7    C91   A    
C48   O32   A    
Cr9   O33   S    
Cr10  O14   S    
C54   C58   A    
C75   O11   A    
C25   C30   A    
C14   H26   S    
C76   O12   A    
C40   H44   S    
Cr3   O47   S    
Cr1   O41   S    
C4    O24   A    
C21   C65   S    
C27   C32   A    
Cr2   O46   S    
C59   C63   A    
C62   C78   S    
C28   C31   A    
Cr1   O45   S    
C79   O15   A    
C26   H34   S    
C87   H3    S    
C53   C57   A    
Cr4   O24   S    
C72   O48   A    
C37   C61   A    
C100  H61   S    
C71   O51   A    
C45   O29   A    
Cr2   O2    S    
C82   C85   D    
C39   C63   A    
C39   H43   S    
Cr11  O15   S    
C40   C64   A    
C60   C64   A    
C90   H18   S    
Cr8   O20   S    
C7    H23   S    
C46   O34   A    
Cr9   O13   S    
C42   H6    S    
C77   O41   A    
C37   C41   A    
C3    C10   S    
C97   H58   S    
Cr2   O22   S    
C56   C99   S    
C3    O23   A    
Cr12  O16   S    
C89   H17   S    
C99   H63   S    
C43   C51   A    
C84   H15   S    
Cr5   O17   S    
C1    O21   A    
C96   H51   S    
C76   O8    A    
C5    H21   S    
C18   H30   S    
C31   C35   A    
C65   O1    A    
Cr4   O44   S    
C16   H28   S    
C27   H35   S    
C49   C53   A    
C6    C10   A    
C24   C68   S    
Cr9   O9    S    
C47   C83   S    
C38   C42   A    
C75   O7    A    
C40   C44   A    
C15   H27   S    
C68   O40   A    
C26   C29   A    
Cr10  O18   S    
C4    O28   A    
C39   C43   A    
Cr7   O51   S    
C27   C28   A    
C58   H10   S    
C13   H25   S    
C79   O43   A    
C82   H13   S    
C45   C81   S    
C4    C9    S    
C36   H40   S    
Cr3   O23   S    
C99   C100  S    
C20   C24   A    
C5    C89   A    
C52   C56   A    
C35   H39   S    
C38   C62   A    
C53   C93   S    
