data_mof_unit_pretest_1968.cif
_audit_creation_date              2012-12-10T19:06:16-0500
_audit_creation_method            fapswitch 2.2
_symmetry_space_group_name_H-M    P1
_symmetry_Int_Tables_number       1
_space_group_crystal_system       triclinic
_cell_length_a                    13.071207
_cell_length_b                    13.648808
_cell_length_c                    15.756432
_cell_angle_alpha                 90.043103
_cell_angle_beta                  92.642701
_cell_angle_gamma                 85.665026
_cell_volume                      2800.01474365

loop_
_atom_site_label
_atom_site_type_symbol
_atom_type_description
_atom_site_fract_x
_atom_site_fract_y
_atom_site_fract_z
_atom_type_partial_charge
C1    C     C_R   0.481163 0.685009 0.499075 0.894447
C2    C     C_1   0.145509 0.480038 0.482882 0.270425
C3    C     C_R   0.499349 0.500006 0.662266 0.884801
C4    C     C_R   0.500651 0.499994 0.337734 0.884800
C5    C     C_3   0.449235 0.583340 0.026387 0.056733
C6    C     C_3   0.550765 0.416660 0.973613 0.056733
C7    C     C_3   0.545792 0.577789 0.973129 0.308217
C8    C     C_3   0.454208 0.422211 0.026871 0.308217
C9    C     C_1   0.498036 0.499818 0.750915 -0.083948
C10   C     C_1   0.501964 0.500181 0.249084 -0.083948
C11   C     C_3   0.402751 0.504487 0.969201 0.312250
C12   C     C_R   0.518837 0.314991 0.500925 0.894447
C13   C     C_3   0.597249 0.495513 0.030799 0.312250
C14   C     C_3   0.498969 0.499464 0.916758 -0.239015
C15   C     C_3   0.501031 0.500536 0.083242 -0.239015
C16   C     C_1   0.497931 0.499654 0.826025 0.189511
C17   C     C_1   0.502069 0.500346 0.173975 0.189511
C18   C     C_1   0.533921 0.212082 0.501753 -0.084727
C19   C     C_1   0.466078 0.787918 0.498247 -0.084727
C20   C     C_2   0.544586 0.021173 0.502418 0.283905
C21   C     C_2   0.455414 0.978827 0.497582 0.283905
C22   C     C_1   0.457267 0.875168 0.497737 0.095207
C23   C     C_1   0.542733 0.124832 0.502263 0.095207
C24   C     C_2   0.033639 0.472040 0.476653 0.210782
C25   C     C_2   0.966361 0.527960 0.523347 0.210782
C26   C     C_1   0.854491 0.519962 0.517118 0.270425
Cl1   Cl    Cl    0.607316 0.680265 0.935190 -0.398735
Cl2   Cl    Cl    0.392684 0.319735 0.064810 -0.398735
Cl3   Cl    Cl    0.725968 0.490693 0.073966 -0.382901
Cl4   Cl    Cl    0.274032 0.509307 0.926034 -0.382901
Cl5   Cl    Cl    0.334558 0.046347 0.490944 -0.474329
Cl6   Cl    Cl    0.665442 0.953653 0.509056 -0.474329
Cl7   Cl    Cl    0.011376 0.615291 0.595560 -0.467203
Cl8   Cl    Cl    0.988624 0.384709 0.404440 -0.467203
I1    I     I_    0.369341 0.714796 0.070419 -0.013474
I2    I     I_    0.630659 0.285204 0.929581 -0.013474
N1    N     N_1   0.234530 0.484780 0.486590 -0.069445
N2    N     N_1   0.765470 0.515220 0.513410 -0.069445
O1    O     O_R   0.402510 0.634760 0.495090 -0.600430
O2    O     O_R   0.597490 0.365240 0.504910 -0.600429
O3    O     O_R   0.572960 0.644530 0.503700 -0.584066
O4    O     O_R   0.427040 0.355470 0.496300 -0.584066
O5    O     O_R   0.414790 0.495120 0.618920 -0.592484
O6    O     O_R   0.585210 0.504880 0.381080 -0.592484
O7    O     O_R   0.585240 0.504900 0.627530 -0.597284
O8    O     O_R   0.414760 0.495100 0.372470 -0.597283
Zn1   Zn    Zn3+2 0.386190 0.493480 0.494250 1.081763
Zn2   Zn    Zn3+2 0.613810 0.506520 0.505750 1.081762

loop_
_geom_bond_atom_site_label_1
_geom_bond_atom_site_label_2
_ccdc_geom_bond_type
C12   O2    A    
C12   O4    A    
C3    C9    S    
C6    C14   S    
N2    Zn2   S    
C20   C23   S    
C12   C18   S    
N1    Zn1   S    
C3    O7    A    
C4    O8    A    
C21   C22   S    
C20   C21   D    
C6    C13   S    
C21   Cl5   S    
C2    N1    T    
C3    O5    A    
C8    C11   S    
C5    I1    S    
C1    O3    A    
C9    C16   T    
C6    I2    S    
C5    C11   S    
C8    C15   S    
C5    C7    S    
O4    Zn1   S    
C13   C15   S    
C2    C24   S    
C8    Cl2   S    
C11   C14   S    
C14   C16   S    
C5    C15   S    
C1    C19   S    
C1    O1    A    
C10   C17   T    
C4    C10   S    
C18   C23   T    
C7    C13   S    
C19   C22   T    
C7    Cl1   S    
C24   C25   D    
O1    Zn1   S    
C20   Cl6   S    
O7    Zn2   S    
C13   Cl3   S    
C15   C17   S    
O2    Zn2   S    
O8    Zn1   S    
C26   N2    T    
C6    C8    S    
C4    O6    A    
C25   C26   S    
O5    Zn1   S    
O3    Zn2   S    
C7    C14   S    
C24   Cl8   S    
O6    Zn2   S    
C11   Cl4   S    
C25   Cl7   S    
