data_mof_unit_pretest_405.cif
_audit_creation_date              2012-12-10T20:27:11-0500
_audit_creation_method            fapswitch 2.2
_symmetry_space_group_name_H-M    P1
_symmetry_Int_Tables_number       1
_space_group_crystal_system       triclinic
_cell_length_a                    10.432493
_cell_length_b                    10.694124
_cell_length_c                    9.885363
_cell_angle_alpha                 89.534645
_cell_angle_beta                  102.434157
_cell_angle_gamma                 90.654121
_cell_volume                      1076.91688563

loop_
_atom_site_label
_atom_site_type_symbol
_atom_type_description
_atom_site_fract_x
_atom_site_fract_y
_atom_site_fract_z
_atom_type_partial_charge
C1    C     C_R   0.502840 0.260125 0.501054 0.917979
C2    C     C_R   0.520463 0.128869 0.505867 -0.062977
C3    C     C_R   0.545842 0.066159 0.390417 -0.118259
C4    C     C_R   0.544617 0.936992 0.389631 -0.196498
C5    C     C_R   0.517740 0.871815 0.504053 -0.071155
C6    C     C_R   0.513051 0.935616 0.625242 0.051337
C7    C     C_3   0.417707 0.928511 0.719063 0.238570
C8    C     C_3   0.421572 0.070583 0.720543 -0.508989
C9    C     C_R   0.435628 0.407995 0.057624 0.120364
C10   C     C_R   0.574286 0.584761 0.086351 0.026332
C11   C     C_R   0.572863 0.583961 0.942128 -0.061133
C12   C     C_R   0.256746 0.495802 0.443519 0.869480
C13   C     C_R   0.435523 0.408054 0.915201 0.202993
C14   C     C_3   0.292056 0.378545 0.877538 -0.588825
C15   C     C_3   0.292462 0.378810 0.031729 -0.238625
C16   C     C_R   0.502277 0.739960 0.500146 0.917979
C17   C     C_R   0.742779 0.495130 0.556281 0.966445
C18   C     C_2   0.115555 0.474109 0.415003 -0.182602
C19   C     C_2   0.069786 0.399173 0.505051 -0.179624
C20   C     C_2   0.883057 0.475175 0.583379 -0.440800
C21   C     C_2   0.932009 0.390744 0.508892 0.492866
C22   C     C_R   0.516061 0.063046 0.626702 0.076331
H1    H     H_    0.468419 0.109589 0.823456 0.183116
H2    H     H_    0.629765 0.651759 0.897390 0.182118
H3    H     H_    0.234246 0.456386 0.819989 0.228620
H4    H     H_    0.272130 0.285656 0.827288 0.192984
H5    H     H_    0.234126 0.455868 0.062709 0.196451
H6    H     H_    0.137007 0.352061 0.588631 0.138699
H7    H     H_    0.947342 0.538644 0.652937 0.139811
H8    H     H_    0.558527 0.115889 0.298195 0.188435
H9    H     H_    0.556618 0.889337 0.297115 0.184877
H10   H     H_    0.460654 0.885176 0.821133 0.133871
H11   H     H_    0.327702 0.115529 0.669691 0.232527
N1    N     N_R   0.499160 0.499140 0.142600 -0.149872
N2    N     N_R   0.499160 0.499180 0.856960 -0.116932
O1    O     O_R   0.500020 0.316790 0.614700 -0.617561
O2    O     O_R   0.500000 0.316760 0.385350 -0.601073
O3    O     O_R   0.317820 0.500020 0.571850 -0.591274
O4    O     O_R   0.317800 0.499980 0.342510 -0.611744
O5    O     O_R   0.500000 0.683240 0.614650 -0.602525
O6    O     O_R   0.499980 0.683210 0.385300 -0.668659
O7    O     O_R   0.682200 0.500020 0.657490 -0.607422
O8    O     O_R   0.682180 0.499980 0.428150 -0.583239
Zn1   Zn    Zn3+2 0.500010 0.500020 0.653140 0.981832
Zn2   Zn    Zn3+2 0.499990 0.499980 0.346860 0.983310
Cl1   Cl    Cl    0.835893 0.273302 0.408763 -0.526633
C23   C     C_2   0.657885 0.679942 0.172206 0.461711
H12   H     H_    0.684693 0.672118 0.282911 0.138630
O9    O     O_2   0.701115 0.769798 0.118596 -0.597044
C24   C     C_2   0.266404 0.252697 0.088762 0.515038
H13   H     H_    0.318416 0.170948 0.065428 0.050102
O10   O     O_2   0.186935 0.241464 0.162467 -0.528127
C25   C     C_2   0.032656 0.536135 0.291881 0.495306
H14   H     H_    0.077372 0.603315 0.232736 0.062116
O11   O     O_2   0.915874 0.512301 0.253542 -0.530207
Cl2   Cl    Cl    0.259925 0.867217 0.637149 -0.588429

loop_
_geom_bond_atom_site_label_1
_geom_bond_atom_site_label_2
_ccdc_geom_bond_type
C2    C22   A    
C3    H8    S    
C24   O10   D    
C17   O8    A    
O3    Zn1   S    
C6    C7    S    
N2    Zn1   S    
C13   C14   S    
C8    C22   S    
C23   H12   S    
C1    O2    A    
O4    Zn2   S    
C8    H1    S    
C12   O4    A    
C11   N2    A    
C2    C3    A    
C9    C15   S    
C7    C8    S    
C23   O9    D    
N1    Zn2   S    
C25   H14   S    
C14   H4    S    
C19   H6    S    
O8    Zn2   S    
C5    C6    A    
O7    Zn1   S    
C7    Cl2   S    
C16   O5    A    
C19   C21   S    
C1    C2    S    
C8    H11   S    
C25   O11   D    
C14   H3    S    
C12   O3    A    
C9    N1    A    
O1    Zn1   S    
C4    H9    S    
C10   C11   A    
O2    Zn2   S    
C3    C4    A    
C6    C22   A    
C11   H2    S    
O5    Zn1   S    
C17   C20   S    
C20   C21   D    
C20   H7    S    
C10   N1    A    
C21   Cl1   S    
C15   C24   S    
C12   C18   S    
C10   C23   S    
C9    C13   A    
C17   O7    A    
C18   C19   D    
C5    C16   S    
O6    Zn2   S    
C7    H10   S    
C18   C25   S    
C24   H13   S    
C14   C15   S    
C15   H5    S    
C16   O6    A    
C13   N2    A    
C1    O1    A    
C4    C5    A    
