data_mof_unit_pretest_170.cif
_audit_creation_date              2012-10-26T17:12:30-0400
_audit_creation_method            fapswitch 2.2
_symmetry_space_group_name_H-M    P1
_symmetry_Int_Tables_number       1
_space_group_crystal_system       triclinic
_cell_length_a                    16.875082
_cell_length_b                    16.759754
_cell_length_c                    16.726859
_cell_angle_alpha                 67.879064
_cell_angle_beta                  67.866425
_cell_angle_gamma                 67.738022
_cell_volume                      3901.69803176

loop_
_atom_site_label
_atom_site_type_symbol
_atom_type_description
_atom_site_fract_x
_atom_site_fract_y
_atom_site_fract_z
_atom_type_partial_charge
C1    C     C_R   0.030271 0.827911 0.563968 0.547817
C2    C     C_R   0.030351 0.563865 0.827986 0.546121
C3    C     C_R   0.169414 0.982830 0.431069 0.553539
C4    C     C_R   0.830586 0.017170 0.568931 0.553539
C5    C     C_R   0.460717 0.087530 0.690669 -0.039343
C6    C     C_R   0.539283 0.912470 0.309331 -0.039343
C7    C     C_R   0.061821 0.706518 0.453342 -0.049242
C8    C     C_R   0.938179 0.293481 0.546658 -0.049242
C9    C     C_R   0.707593 0.453926 0.058763 -0.045734
C10   C     C_R   0.292407 0.546074 0.941237 -0.045734
C11   C     C_R   0.265583 0.048859 0.500745 -0.060731
C12   C     C_R   0.969728 0.172089 0.436032 0.547816
C13   C     C_R   0.734417 0.951142 0.499254 -0.060731
C14   C     C_R   0.545039 0.293596 0.937686 -0.048503
C15   C     C_R   0.454960 0.706404 0.062314 -0.048503
C16   C     C_R   0.937733 0.546631 0.293318 -0.042653
C17   C     C_R   0.062267 0.453369 0.706682 -0.042653
C18   C     C_R   0.548506 0.005098 0.550046 -0.026139
C19   C     C_R   0.451494 0.994902 0.449954 -0.026139
C20   C     C_R   0.019931 0.544044 0.544105 -0.028787
C21   C     C_R   0.980069 0.455956 0.455895 -0.028787
C22   C     C_R   0.544739 0.544369 0.018722 -0.031516
C23   C     C_R   0.828079 0.564300 0.029506 0.548081
C24   C     C_R   0.455260 0.455631 0.981278 -0.031516
C25   C     C_R   0.594523 0.969189 0.474983 0.034863
C26   C     C_R   0.405476 0.030812 0.525016 0.034862
C27   C     C_R   0.014198 0.454899 0.586109 0.034549
C28   C     C_R   0.985803 0.545100 0.413891 0.034549
C29   C     C_R   0.455526 0.585977 0.014417 0.035012
C30   C     C_R   0.544474 0.414023 0.985583 0.035012
C31   C     C_R   0.545233 0.958176 0.428842 0.035236
C32   C     C_R   0.454767 0.041825 0.571157 0.035236
C33   C     C_R   0.413951 0.544892 0.986938 0.037244
C34   C     C_R   0.171921 0.435700 0.970494 0.548080
C35   C     C_R   0.586049 0.455108 0.013062 0.037244
C36   C     C_R   0.985540 0.414207 0.545263 0.035243
C37   C     C_R   0.014461 0.585793 0.454737 0.035243
C38   C     C_R   0.415980 0.096100 0.631528 0.290608
C39   C     C_R   0.584019 0.903900 0.368472 0.290609
C40   C     C_R   0.049462 0.660309 0.406979 0.275266
C41   C     C_R   0.950538 0.339690 0.593020 0.275266
C42   C     C_R   0.661177 0.407566 0.047030 0.277805
C43   C     C_R   0.338823 0.592434 0.952970 0.277806
C44   C     C_R   0.311668 0.048196 0.554455 0.279474
C45   C     C_R   0.564134 0.029640 0.828260 0.541477
C46   C     C_R   0.688331 0.951805 0.445544 0.279474
C47   C     C_R   0.591401 0.339400 0.950093 0.276459
C48   C     C_R   0.408599 0.660599 0.049907 0.276460
C49   C     C_R   0.951005 0.592880 0.338967 0.282501
C50   C     C_R   0.048995 0.407120 0.661033 0.282502
C51   C     C_R   0.551521 0.043200 0.676926 -0.057252
C52   C     C_R   0.448478 0.956800 0.323073 -0.057252
C53   C     C_R   0.045007 0.677657 0.547424 -0.061309
C54   C     C_R   0.954994 0.322343 0.452576 -0.061309
C55   C     C_R   0.678604 0.547915 0.042574 -0.056991
C56   C     C_R   0.435865 0.970360 0.171739 0.541476
C57   C     C_R   0.321396 0.452085 0.957426 -0.056991
C58   C     C_R   0.309228 0.009920 0.428709 -0.061262
C59   C     C_R   0.690772 0.990080 0.571290 -0.061262
C60   C     C_R   0.451559 0.322231 0.955731 -0.058049
C61   C     C_R   0.548441 0.677769 0.044268 -0.058049
C62   C     C_R   0.954579 0.452652 0.322346 -0.058121
C63   C     C_R   0.045421 0.547347 0.677654 -0.058121
C64   C     C_R   0.600295 0.042910 0.729641 -0.006571
C65   C     C_R   0.399704 0.957089 0.270359 -0.006571
C66   C     C_R   0.048397 0.728279 0.597543 -0.004239
C67   C     C_R   0.435878 0.171894 0.970127 0.543190
C68   C     C_R   0.951603 0.271721 0.402457 -0.004239
C69   C     C_R   0.728822 0.597924 0.046658 -0.005393
C70   C     C_R   0.271178 0.402076 0.953342 -0.005393
C71   C     C_R   0.264010 0.982990 0.390022 -0.004643
C72   C     C_R   0.735990 0.017010 0.609978 -0.004643
C73   C     C_R   0.401976 0.271564 0.952342 -0.005747
C74   C     C_R   0.598024 0.728436 0.047658 -0.005747
C75   C     C_R   0.951281 0.402632 0.271667 -0.006915
C76   C     C_R   0.048719 0.597368 0.728333 -0.006915
C77   C     C_R   0.688183 0.046834 0.688014 0.204281
C78   C     C_R   0.564122 0.828106 0.029873 0.543190
C79   C     C_R   0.311816 0.953166 0.311985 0.204281
C80   C     C_R   0.059731 0.684226 0.684442 0.200942
C81   C     C_R   0.940269 0.315774 0.315558 0.200942
C82   C     C_R   0.684552 0.684557 0.058586 0.200118
C83   C     C_R   0.315448 0.315443 0.941414 0.200118
C84   C     C_R   0.597077 0.012016 0.599712 0.005096
C85   C     C_R   0.402922 0.987984 0.400288 0.005096
C86   C     C_R   0.035770 0.590192 0.590235 0.001181
C87   C     C_R   0.964230 0.409808 0.409764 0.001181
C88   C     C_R   0.591190 0.590581 0.033948 0.000863
C89   C     C_R   0.969648 0.436135 0.172014 0.546121
C90   C     C_R   0.408810 0.409418 0.966052 0.000863
Cl1   Cl    Cl    0.329055 0.195809 0.614716 -0.434283
Cl2   Cl    Cl    0.292807 0.685337 0.101695 -0.401069
Cl3   Cl    Cl    0.902069 0.710009 0.313048 -0.374895
Cl4   Cl    Cl    0.097931 0.289991 0.686952 -0.374894
Cl5   Cl    Cl    0.729963 0.104560 0.726345 -0.492599
Cl6   Cl    Cl    0.270037 0.895440 0.273655 -0.492599
Cl7   Cl    Cl    0.103681 0.731375 0.731862 -0.479862
Cl8   Cl    Cl    0.896319 0.268624 0.268138 -0.479861
Cl9   Cl    Cl    0.730962 0.731397 0.103853 -0.489220
Cl10  Cl    Cl    0.269038 0.268603 0.896147 -0.489220
Cl11  Cl    Cl    0.670945 0.804193 0.385283 -0.434283
Cl12  Cl    Cl    0.100670 0.684121 0.290245 -0.400879
Cl13  Cl    Cl    0.899330 0.315878 0.709754 -0.400879
Cl14  Cl    Cl    0.685800 0.290796 0.098386 -0.437514
Cl15  Cl    Cl    0.314200 0.709204 0.901614 -0.437515
Cl16  Cl    Cl    0.249650 0.041196 0.667806 -0.396640
Cl17  Cl    Cl    0.750349 0.958807 0.332193 -0.396641
Cl18  Cl    Cl    0.707193 0.314663 0.898305 -0.401069
Cu1   Cu    Cu3+1 0.995180 0.995180 0.424630 1.178121
Cu2   Cu    Cu3+1 0.004820 0.004820 0.575370 1.178121
Cu3   Cu    Cu3+1 0.995180 0.424630 0.995180 1.172092
Cu4   Cu    Cu3+1 0.004820 0.575370 0.004820 1.172092
Cu5   Cu    Cu3+1 0.424630 0.995180 0.995180 1.171103
Cu6   Cu    Cu3+1 0.575370 0.004820 0.004820 1.171103
H1    H     H_    0.428088 0.127276 0.738358 0.189306
H2    H     H_    0.415702 0.759208 0.094900 0.199025
H3    H     H_    0.905949 0.586419 0.240108 0.200579
H4    H     H_    0.094051 0.413581 0.759892 0.200580
H5    H     H_    0.571912 0.872724 0.261642 0.189307
H6    H     H_    0.093375 0.759682 0.413584 0.203041
H7    H     H_    0.906625 0.240318 0.586416 0.203041
H8    H     H_    0.760880 0.413931 0.090010 0.200035
H9    H     H_    0.239120 0.586069 0.909990 0.200035
H10   H     H_    0.194609 0.076828 0.520554 0.182930
H11   H     H_    0.805390 0.923172 0.479445 0.182931
H12   H     H_    0.584297 0.240792 0.905100 0.199025
O1    O     O_R   0.124540 0.978640 0.385460 -0.444314
O2    O     O_R   0.124540 0.385460 0.978640 -0.441438
O3    O     O_R   0.021360 0.875460 0.614540 -0.436619
O4    O     O_R   0.978640 0.124540 0.385460 -0.436619
O5    O     O_R   0.013780 0.867370 0.487190 -0.542165
O6    O     O_R   0.986220 0.132630 0.512810 -0.542165
O7    O     O_R   0.867370 0.487190 0.013780 -0.528919
O8    O     O_R   0.132630 0.512810 0.986220 -0.528919
O9    O     O_R   0.487190 0.013780 0.867370 -0.516166
O10   O     O_R   0.512810 0.986220 0.132630 -0.516166
O11   O     O_R   0.512810 0.132630 0.986220 -0.529130
O12   O     O_R   0.875460 0.021360 0.614540 -0.444314
O13   O     O_R   0.487190 0.867370 0.013780 -0.529130
O14   O     O_R   0.986220 0.512810 0.132630 -0.528429
O15   O     O_R   0.013780 0.487190 0.867370 -0.528429
O16   O     O_R   0.132630 0.986220 0.512810 -0.519829
O17   O     O_R   0.867370 0.013780 0.487190 -0.519829
O18   O     O_R   0.978640 0.385460 0.124540 -0.443115
O19   O     O_R   0.021360 0.614540 0.875460 -0.443115
O20   O     O_R   0.385460 0.124540 0.978640 -0.441199
O21   O     O_R   0.614540 0.875460 0.021360 -0.441199
O22   O     O_R   0.614540 0.021360 0.875460 -0.445776
O23   O     O_R   0.385460 0.978640 0.124540 -0.445776
O24   O     O_R   0.875460 0.614540 0.021360 -0.441438

loop_
_geom_bond_atom_site_label_1
_geom_bond_atom_site_label_2
_ccdc_geom_bond_type
C25   C31   A    
C21   C87   A    
C26   C32   A    
C65   C79   A    
C22   C29   A    
C80   Cl7   S    
C45   O22   A    
C64   C77   A    
C23   C69   S    
Cu3   Cu4   S    
C3    O16   A    
C19   C31   A    
C78   O13   A    
Cu3   O2    S    
C4    O17   A    
C71   C79   A    
C26   C44   A    
C66   C80   A    
C21   C36   A    
C2    O19   A    
C22   C35   A    
C12   C68   S    
C9    C42   A    
C12   O4    A    
C30   C35   A    
C68   C81   A    
C52   C85   A    
Cu6   O21   S    
C37   C40   A    
C1    O3    A    
C43   Cl15  S    
C54   C87   A    
C3    O1    A    
C8    H7    S    
C54   C68   A    
C63   C76   A    
C34   O8    A    
C56   C65   S    
C29   C33   A    
C60   C73   A    
Cu4   O19   S    
Cu2   O3    S    
C82   Cl9   S    
Cu6   O11   S    
C55   C88   A    
Cu2   O16   S    
C19   C26   A    
Cu4   O14   S    
C69   C82   A    
Cu1   O1    S    
C11   H10   S    
C20   C86   A    
Cu1   O5    S    
C18   C84   A    
C7    C40   A    
Cu5   O13   S    
Cu2   O6    S    
C53   C86   A    
C9    C55   A    
C32   C38   A    
C57   C70   A    
C11   C58   A    
C34   C70   S    
C74   C78   S    
C27   C50   A    
C59   C72   A    
C13   H11   S    
C5    C38   A    
C5    H1    S    
C9    H8    S    
C36   C41   A    
C18   C25   A    
C16   C62   A    
C15   C48   A    
C74   C82   A    
C67   O11   A    
C56   O10   A    
C24   C33   A    
C39   Cl11  S    
C45   O9    A    
C57   C90   A    
C23   O7    A    
C29   C48   A    
C33   C43   A    
Cu5   O23   S    
C30   C47   A    
Cu2   O12   S    
C10   C57   A    
C8    C41   A    
C10   H9    S    
C60   C90   A    
C8    C54   A    
Cu3   O15   S    
C75   C81   A    
C1    O5    A    
C4    O12   A    
C38   Cl1   S    
C77   Cl5   S    
C41   Cl13  S    
C42   Cl14  S    
Cu5   O20   S    
C3    C71   S    
C72   C77   A    
C70   C83   A    
C61   C88   A    
C28   C49   A    
C89   O14   A    
C46   Cl17  S    
C67   O20   A    
C1    C66   S    
C15   C61   A    
C11   C44   A    
Cu1   O17   S    
C16   C49   A    
C53   C66   A    
C55   C69   A    
C78   O21   A    
C67   C73   S    
C17   H4    S    
C21   C28   A    
C22   C88   A    
C83   Cl10  S    
C63   C86   A    
Cu5   O9    S    
C61   C74   A    
Cu4   O24   S    
C62   C75   A    
C18   C32   A    
C7    C53   A    
C58   C85   A    
Cu3   O18   S    
C6    H5    S    
C4    C72   S    
C2    C76   S    
Cu5   Cu6   S    
C12   O6    A    
C10   C43   A    
C6    C39   A    
C7    H6    S    
C23   O24   A    
C50   Cl4   S    
C51   C64   A    
C76   C80   A    
Cu4   O8    S    
C44   Cl16  S    
C19   C85   A    
C24   C90   A    
C17   C50   A    
C14   C47   A    
C13   C59   A    
C20   C27   A    
Cu3   O7    S    
C27   C36   A    
C89   O18   A    
C14   C60   A    
C62   C87   A    
C45   C64   S    
C59   C84   A    
C14   H12   S    
C49   Cl3   S    
Cu6   O22   S    
C79   Cl6   S    
Cu1   Cu2   S    
C17   C63   A    
C20   C37   A    
C13   C46   A    
C28   C37   A    
C51   C84   A    
C35   C42   A    
C31   C39   A    
C58   C71   A    
C24   C30   A    
C48   Cl2   S    
C75   C89   S    
C40   Cl12  S    
C34   O2    A    
C47   Cl18  S    
C81   Cl8   S    
Cu1   O4    S    
C2    O15   A    
Cu6   O10   S    
C15   H2    S    
C5    C51   A    
C6    C52   A    
C56   O23   A    
C16   H3    S    
C25   C46   A    
C73   C83   A    
C52   C65   A    
