data_mof_unit_pretest_1741.cif
_audit_creation_date              2012-10-26T18:46:51-0400
_audit_creation_method            fapswitch 2.2
_symmetry_space_group_name_H-M    P1
_symmetry_Int_Tables_number       1
_space_group_crystal_system       triclinic
_cell_length_a                    16.52921
_cell_length_b                    17.047067
_cell_length_c                    17.740025
_cell_angle_alpha                 87.637613
_cell_angle_beta                  89.493885
_cell_angle_gamma                 93.447741
_cell_volume                      4985.07890759

loop_
_atom_site_label
_atom_site_type_symbol
_atom_type_description
_atom_site_fract_x
_atom_site_fract_y
_atom_site_fract_z
_atom_type_partial_charge
C1    C     C_R   0.499579 0.501637 0.644617 0.579028
C2    C     C_R   0.434742 0.531990 0.846693 -0.049792
C3    C     C_R   0.500187 0.498061 0.114357 -0.002646
C4    C     C_R   0.499813 0.501938 0.885643 -0.002646
C5    C     C_1   0.499987 0.499435 0.033810 0.014519
C6    C     C_1   0.500013 0.500564 0.966190 0.014519
C7    C     C_R   0.173658 0.550669 0.452422 -0.129959
C8    C     C_R   0.826342 0.449331 0.547578 -0.129959
C9    C     C_R   0.259029 0.550601 0.452690 0.338508
C10   C     C_R   0.740971 0.449399 0.547310 0.338508
C11   C     C_R   0.252798 0.449334 0.548473 0.384923
C12   C     C_R   0.500421 0.498362 0.355382 0.579028
C13   C     C_R   0.747201 0.550666 0.451527 0.384923
C14   C     C_R   0.166715 0.448183 0.549352 0.243315
C15   C     C_R   0.833285 0.551816 0.450647 0.243315
C16   C     C_R   0.490402 0.348786 0.499834 0.574016
C17   C     C_R   0.509598 0.651214 0.500166 0.574016
C18   C     C_R   0.126332 0.499361 0.500661 -0.043706
C19   C     C_R   0.873668 0.500639 0.499339 -0.043706
C20   C     C_1   0.037084 0.499941 0.500069 0.107822
C21   C     C_1   0.962916 0.500059 0.499931 0.107822
C22   C     C_R   0.486434 0.262912 0.495068 -0.027174
C23   C     C_R   0.435786 0.525415 0.232177 -0.137441
C24   C     C_R   0.513566 0.737088 0.504932 -0.027174
C25   C     C_R   0.557875 0.224459 0.482851 -0.074552
C26   C     C_R   0.442125 0.775541 0.517149 -0.074553
C27   C     C_R   0.555471 0.143262 0.476358 0.266973
C28   C     C_R   0.444529 0.856738 0.523642 0.266973
C29   C     C_R   0.480534 0.099079 0.483799 0.237456
C30   C     C_R   0.519466 0.900921 0.516201 0.237456
C31   C     C_R   0.409151 0.137713 0.493752 -0.104266
C32   C     C_R   0.590849 0.862287 0.506248 -0.104266
C33   C     C_R   0.411890 0.219069 0.499724 -0.139600
C34   C     C_R   0.564214 0.474585 0.767823 -0.137440
C35   C     C_R   0.588109 0.780931 0.500276 -0.139600
C36   C     C_R   0.435319 0.526395 0.153654 -0.105284
C37   C     C_R   0.564681 0.473605 0.846346 -0.105283
C38   C     C_R   0.501404 0.496501 0.272391 0.023540
C39   C     C_R   0.498596 0.503498 0.727609 0.023540
C40   C     C_R   0.566447 0.466658 0.232028 0.247311
C41   C     C_R   0.433552 0.533341 0.767972 0.247312
C42   C     C_R   0.565258 0.468009 0.153307 -0.049792
Cl1   Cl    Cl    0.311697 0.618755 0.390512 -0.550681
Cl2   Cl    Cl    0.351095 0.576446 0.723515 -0.492787
Cl3   Cl    Cl    0.688303 0.381244 0.609487 -0.550681
Cl4   Cl    Cl    0.299184 0.384324 0.612099 -0.437237
Cl5   Cl    Cl    0.700816 0.615676 0.387901 -0.437238
Cl6   Cl    Cl    0.109472 0.382596 0.611817 -0.447858
Cl7   Cl    Cl    0.890528 0.617403 0.388183 -0.447858
Cl8   Cl    Cl    0.353248 0.899758 0.545270 -0.479691
Cl9   Cl    Cl    0.646752 0.100242 0.454729 -0.479690
Cl10  Cl    Cl    0.648904 0.423553 0.276485 -0.492788
Cu1   Cu    Cu3+1 0.419580 0.500000 0.500020 1.139724
Cu2   Cu    Cu3+1 0.580420 0.500000 0.499980 1.139724
H1    H     H_    0.384223 0.742434 0.523046 0.207638
H2    H     H_    0.614934 0.451792 0.738641 0.197054
H3    H     H_    0.614986 0.445153 0.122444 0.166817
H4    H     H_    0.385013 0.554846 0.877556 0.166817
H5    H     H_    0.144342 0.591217 0.414429 0.190404
H6    H     H_    0.855658 0.408783 0.585571 0.190404
H7    H     H_    0.615777 0.257566 0.476954 0.207638
H8    H     H_    0.351319 0.104332 0.498138 0.190198
H9    H     H_    0.648681 0.895668 0.501861 0.190198
H10   H     H_    0.355844 0.247493 0.508113 0.193145
H11   H     H_    0.644155 0.752507 0.491887 0.193145
H12   H     H_    0.384513 0.549463 0.123606 0.155133
H13   H     H_    0.615487 0.450537 0.876394 0.155133
H14   H     H_    0.385066 0.548209 0.261359 0.197054
N1    N     N_2   0.474438 0.016313 0.480194 -0.143666
N2    N     N_2   0.525562 0.983687 0.519806 -0.143666
N3    N     N_R   0.298780 0.499980 0.500030 -0.242023
N4    N     N_R   0.701220 0.500020 0.499970 -0.242023
O1    O     O_R   0.432070 0.499990 0.608760 -0.416015
O2    O     O_R   0.567930 0.500010 0.391240 -0.416015
O3    O     O_R   0.567880 0.500000 0.608730 -0.489153
O4    O     O_R   0.432120 0.500000 0.391270 -0.489152
O5    O     O_R   0.424660 0.386070 0.500710 -0.483595
O6    O     O_R   0.575340 0.613930 0.499290 -0.483595
O7    O     O_R   0.560480 0.386080 0.500680 -0.460400
O8    O     O_R   0.439520 0.613920 0.499320 -0.460400

loop_
_geom_bond_atom_site_label_1
_geom_bond_atom_site_label_2
_ccdc_geom_bond_type
C38   C40   A    
C3    C42   A    
C34   H2    S    
C12   O2    A    
C27   C29   A    
C34   C37   A    
C14   C18   A    
C2    C4    A    
C26   H1    S    
C39   C41   A    
Cu1   Cu2   S    
C15   C19   A    
C19   C21   S    
C24   C26   A    
C5    C6    T    
C11   C14   A    
C11   N3    A    
C35   H11   S    
C2    C41   A    
C16   O5    A    
Cu2   O2    S    
C28   Cl8   S    
C22   C25   A    
C31   C33   A    
C18   C20   S    
C40   C42   A    
C31   H8    S    
C42   H3    S    
C7    H5    S    
C30   N2    S    
C27   Cl9   S    
C29   N1    S    
C9    Cl1   S    
C24   C35   A    
C34   C39   A    
C8    C19   A    
C32   C35   A    
Cu1   O8    S    
C4    C6    S    
C13   Cl5   S    
C14   Cl6   S    
C40   Cl10  S    
C17   O8    A    
C1    O3    A    
C23   H14   S    
Cu1   O5    S    
C7    C18   A    
C10   Cl3   S    
C25   H7    S    
C4    C37   A    
C13   C15   A    
C12   O4    A    
C41   Cl2   S    
Cu1   O4    S    
Cu1   N3    S    
Cu2   O7    S    
C7    C9    A    
C22   C33   A    
C16   C22   S    
Cu1   O1    S    
C9    N3    A    
C32   H9    S    
C3    C5    S    
C2    H4    S    
C13   N4    A    
C25   C27   A    
C23   C38   A    
C26   C28   A    
C16   O7    A    
C1    O1    A    
C28   C30   A    
C17   C24   S    
C29   C31   A    
C8    H6    S    
C30   C32   A    
C3    C36   A    
C33   H10   S    
C37   H13   S    
C17   O6    A    
C36   H12   S    
C15   Cl7   S    
C12   C38   S    
N1    N2    D    
C1    C39   S    
Cu2   O3    S    
Cu2   N4    S    
C20   C21   T    
C8    C10   A    
C23   C36   A    
C11   Cl4   S    
Cu2   O6    S    
C10   N4    A    
