data_mof_unit_pretest_194.cif
_audit_creation_date              2012-12-10T17:19:00-0500
_audit_creation_method            fapswitch 2.2
_symmetry_space_group_name_H-M    P1
_symmetry_Int_Tables_number       1
_space_group_crystal_system       triclinic
_cell_length_a                    10.236971
_cell_length_b                    10.74749
_cell_length_c                    13.511263
_cell_angle_alpha                 91.762983
_cell_angle_beta                  99.128149
_cell_angle_gamma                 98.053862
_cell_volume                      1451.09438023

loop_
_atom_site_label
_atom_site_type_symbol
_atom_type_description
_atom_site_fract_x
_atom_site_fract_y
_atom_site_fract_z
_atom_type_partial_charge
C1    C     C_R   0.056562 0.733257 0.494367 0.842639
C2    C     C_2   0.976790 0.054189 0.472960 0.013585
C3    C     C_2   0.431366 0.514219 0.506438 -0.060569
C4    C     C_2   0.568634 0.485779 0.493564 -0.060532
C5    C     C_R   0.092389 0.513677 0.686181 0.869752
C6    C     C_R   0.907604 0.486287 0.313821 0.869772
C7    C     C_R   0.141250 0.524637 0.794666 -0.120289
C8    C     C_R   0.858692 0.475094 0.205349 -0.120291
C9    C     C_R   0.140317 0.597570 0.965946 -0.237642
C10   C     C_R   0.859495 0.401669 0.034168 -0.237618
C11   C     C_R   0.077311 0.580847 0.865933 -0.018333
C12   C     C_R   0.943441 0.266744 0.505644 0.842620
C13   C     C_R   0.922571 0.418658 0.134155 -0.018384
C14   C     C_R   0.263362 0.483078 0.825755 -0.257839
C15   C     C_R   0.736537 0.516544 0.174218 -0.257862
C16   C     C_R   0.334005 0.511060 0.922577 0.099954
C17   C     C_R   0.665789 0.488190 0.077469 0.100010
C18   C     C_R   0.268518 0.565111 0.994205 0.154181
C19   C     C_R   0.731254 0.434023 0.005889 0.154204
C20   C     C_R   0.467838 0.487226 0.949463 0.071477
C21   C     C_R   0.531901 0.511850 0.050601 0.071467
C22   C     C_1   0.050457 0.375830 0.160716 0.207207
C23   C     C_R   0.458919 0.556482 0.121909 -0.204787
C24   C     C_1   0.949420 0.623683 0.839427 0.207238
C25   C     C_1   0.006638 0.078715 0.372831 0.258053
C26   C     C_1   0.993291 0.921214 0.627205 0.258098
C27   C     C_2   0.795917 0.089371 0.570583 0.433667
C28   C     C_2   0.204129 0.910686 0.429515 0.433699
C29   C     C_1   0.579737 0.379529 0.428909 0.279352
C30   C     C_1   0.420262 0.620463 0.571098 0.279449
C31   C     C_R   0.540777 0.442406 0.878195 -0.204774
C32   C     C_R   0.331085 0.585334 0.093426 -0.202980
C33   C     C_R   0.668619 0.413578 0.906699 -0.203015
C34   C     C_2   0.094642 0.867743 0.486436 -0.286081
C35   C     C_2   0.905376 0.132267 0.513624 -0.286034
C36   C     C_2   0.023197 0.945795 0.527098 0.013529
H1    H     H_    0.280306 0.622480 0.149866 0.148699
H2    H     H_    0.330532 0.370562 0.414850 0.192455
H3    H     H_    0.767652 0.154060 0.623920 0.071636
H4    H     H_    0.232453 0.846020 0.376190 0.071690
H5    H     H_    0.719363 0.376301 0.850294 0.148670
H6    H     H_    0.697778 0.570709 0.227989 0.164369
H7    H     H_    0.302171 0.429147 0.771877 0.164403
H8    H     H_    0.090972 0.639169 0.021360 0.148068
H9    H     H_    0.908810 0.359937 0.978800 0.148082
H10   H     H_    0.496380 0.569479 0.201127 0.148817
H11   H     H_    0.503285 0.429167 0.798998 0.148787
H12   H     H_    0.669467 0.629447 0.585140 0.192458
N1    N     N_2   0.322180 0.446120 0.460900 -0.207205
N2    N     N_2   0.677820 0.553880 0.539100 -0.207174
N3    N     N_1   0.152983 0.341436 0.181790 -0.179196
N4    N     N_1   0.846886 0.658077 0.818397 -0.179207
N5    N     N_1   0.029587 0.098264 0.293121 -0.186419
N6    N     N_1   0.970293 0.901613 0.706896 -0.186402
N7    N     N_1   0.587862 0.294268 0.376937 -0.180207
N8    N     N_1   0.412136 0.705720 0.623075 -0.180208
O1    O     O_R   0.935190 0.693030 0.507870 -0.572994
O2    O     O_2   0.267826 0.016266 0.445405 -0.539477
O3    O     O_R   0.064810 0.306970 0.492130 -0.572977
O4    O     O_R   0.142080 0.658430 0.482770 -0.613749
O5    O     O_R   0.857920 0.341570 0.517230 -0.613746
O6    O     O_R   0.969700 0.527180 0.651960 -0.604901
O7    O     O_R   0.030300 0.472820 0.348040 -0.604950
O8    O     O_R   0.176600 0.492580 0.626860 -0.604165
O9    O     O_R   0.823400 0.507420 0.373140 -0.604137
O10   O     O_2   0.732174 0.983809 0.554706 -0.539481
Zn1   Zn    Zn3+2 0.861850 0.523100 0.516760 0.972789
Zn2   Zn    Zn3+2 0.138150 0.476900 0.483240 0.972748

loop_
_geom_bond_atom_site_label_1
_geom_bond_atom_site_label_2
_ccdc_geom_bond_type
C2    C35   D    
C6    O7    A    
C3    C30   S    
C5    O6    A    
C31   C33   A    
C24   N4    T    
C8    C13   A    
C6    O9    A    
N1    Zn2   S    
C28   O2    D    
O3    Zn2   S    
C2    C25   S    
C5    C7    S    
N2    Zn1   S    
C9    C18   A    
C4    C29   S    
C10   C19   A    
C16   C20   A    
C33   H5    S    
C23   C32   A    
C10   H9    S    
H12   N2    S    
C3    N1    D    
C28   C34   S    
C23   H10   S    
C31   H11   S    
C32   H1    S    
C12   C35   S    
C7    C11   A    
C12   O5    A    
C9    C11   A    
C5    O8    A    
O6    Zn1   S    
O1    Zn1   S    
C26   N6    T    
C26   C36   S    
C17   C19   A    
C25   N5    T    
C13   C22   S    
C8    C15   A    
C34   C36   D    
C21   C23   A    
C14   C16   A    
C18   C32   A    
C28   H4    S    
C1    C34   S    
C27   H3    S    
C3    C4    S    
O8    Zn2   S    
C11   C24   S    
H2    N1    S    
C20   C21   A    
O4    Zn2   S    
C16   C18   A    
C19   C33   A    
C1    O4    A    
C2    C36   S    
C27   O10   D    
O5    Zn1   S    
O7    Zn2   S    
C22   N3    T    
C9    H8    S    
C6    C8    S    
C29   N7    T    
C27   C35   S    
C15   C17   A    
C12   O3    A    
C30   N8    T    
C20   C31   A    
C7    C14   A    
C17   C21   A    
C15   H6    S    
C4    N2    D    
C14   H7    S    
O9    Zn1   S    
C10   C13   A    
C1    O1    A    
