data_mof_unit_pretest_1387.cif
_audit_creation_date              2012-10-26T21:14:44-0400
_audit_creation_method            fapswitch 2.2
_symmetry_space_group_name_H-M    P1
_symmetry_Int_Tables_number       1
_space_group_crystal_system       triclinic
_cell_length_a                    15.07391
_cell_length_b                    10.86563
_cell_length_c                    13.691358
_cell_angle_alpha                 90.533139
_cell_angle_beta                  89.924069
_cell_angle_gamma                 89.633654
_cell_volume                      2242.32862457

loop_
_atom_site_label
_atom_site_type_symbol
_atom_type_description
_atom_site_fract_x
_atom_site_fract_y
_atom_site_fract_z
_atom_type_partial_charge
Br1   Br    Br    0.227987 0.311891 0.202110 -0.492401
Br2   Br    Br    0.771981 0.688098 0.797931 -0.492394
C1    C     C_R   0.498422 0.262095 0.499263 0.580178
C2    C     C_R   0.554501 0.883867 0.680037 -0.018639
C3    C     C_R   0.501648 0.104887 0.238415 -0.110200
C4    C     C_R   0.498331 0.895118 0.761577 -0.110196
C5    C     C_R   0.476798 0.154308 0.148691 0.238591
C6    C     C_R   0.523167 0.845699 0.851305 0.238589
C7    C     C_R   0.395936 0.216414 0.139747 -0.075138
C8    C     C_R   0.604026 0.783589 0.860265 -0.075142
C9    C     C_R   0.477510 0.932348 0.416750 -0.124662
C10   C     C_R   0.522498 0.067652 0.583246 -0.124660
C11   C     C_R   0.502800 0.871742 0.502150 0.031437
C12   C     C_R   0.501580 0.737905 0.500737 0.580174
C13   C     C_R   0.497205 0.128258 0.497847 0.031439
C14   C     C_R   0.526230 0.940223 0.586606 0.011253
C15   C     C_R   0.473775 0.059777 0.413392 0.011250
C16   C     C_R   0.328482 0.500557 0.500089 0.582077
C17   C     C_R   0.671518 0.499443 0.499911 0.582073
C18   C     C_R   0.571894 0.454753 0.793076 0.056536
C19   C     C_R   0.428105 0.545245 0.206924 0.056523
C20   C     C_R   0.427921 0.544720 0.793951 0.041816
C21   C     C_R   0.572078 0.455278 0.206049 0.041816
C22   C     C_R   0.425677 0.544032 0.896920 0.000192
C23   C     C_R   0.046132 0.461948 0.675172 -0.108103
C24   C     C_R   0.574322 0.455964 0.103080 0.000199
C25   C     C_R   0.499916 0.499729 0.948227 0.056333
C26   C     C_R   0.500083 0.500266 0.051773 0.056337
C27   C     C_R   0.574042 0.455075 0.896035 -0.001242
C28   C     C_R   0.425957 0.544921 0.103965 -0.001257
C29   C     C_R   0.351440 0.587178 0.949575 -0.082529
C30   C     C_R   0.648558 0.412816 0.050425 -0.082531
C31   C     C_R   0.351656 0.587858 0.052213 -0.077764
C32   C     C_R   0.648343 0.412136 0.947787 -0.077750
C33   C     C_R   0.814683 0.517953 0.412338 -0.109295
C34   C     C_R   0.953868 0.538040 0.324826 -0.108104
C35   C     C_R   0.185317 0.482046 0.587662 -0.109289
C36   C     C_R   0.768329 0.498808 0.499735 0.022603
C37   C     C_R   0.231671 0.501191 0.500265 0.022605
C38   C     C_R   0.814628 0.479320 0.587055 -0.078413
C39   C     C_R   0.185372 0.520673 0.412944 -0.078408
C40   C     C_R   0.907016 0.479919 0.587844 0.033429
C41   C     C_R   0.092984 0.520069 0.412154 0.033437
C42   C     C_R   0.953508 0.499639 0.499920 0.066551
C43   C     C_R   0.046492 0.500349 0.500078 0.066552
C44   C     C_R   0.907107 0.518572 0.411825 0.019661
C45   C     C_R   0.338788 0.227749 0.219936 0.170074
C46   C     C_R   0.092892 0.481420 0.588173 0.019664
C47   C     C_R   0.953644 0.461153 0.675000 -0.089215
C48   C     C_R   0.046356 0.538832 0.324998 -0.089208
C49   C     C_R   0.661185 0.772249 0.780086 0.170073
C50   C     C_R   0.362732 0.176617 0.310396 0.295597
C51   C     C_R   0.637257 0.823381 0.689622 0.295600
C52   C     C_R   0.445491 0.116135 0.319966 -0.018638
Cl1   Cl    Cl    0.288672 0.185768 0.410210 -0.543858
Cl2   Cl    Cl    0.711330 0.814223 0.589820 -0.543855
Cl3   Cl    Cl    0.546656 0.136714 0.046924 -0.557735
Cl4   Cl    Cl    0.453294 0.863300 0.953059 -0.557734
Cu1   Cu    Cu3+1 0.500010 0.499980 0.597420 0.982274
Cu2   Cu    Cu3+1 0.499990 0.500020 0.402580 0.982265
H1    H     H_    0.778953 0.533142 0.344773 0.126893
H2    H     H_    0.706462 0.378632 0.088587 0.126340
H3    H     H_    0.293794 0.622146 0.091077 0.132551
H4    H     H_    0.706204 0.377849 0.908923 0.132550
H5    H     H_    0.778853 0.463184 0.654413 0.146899
H6    H     H_    0.221147 0.536808 0.345585 0.146901
H7    H     H_    0.918586 0.445967 0.742944 0.144999
H8    H     H_    0.081414 0.554015 0.257053 0.145005
H9    H     H_    0.081083 0.447312 0.743241 0.126025
H10   H     H_    0.918917 0.552677 0.256757 0.126025
H11   H     H_    0.377147 0.255214 0.070147 0.174776
H12   H     H_    0.221047 0.466865 0.655228 0.126892
H13   H     H_    0.622803 0.744789 0.929869 0.174771
H14   H     H_    0.564708 0.057207 0.244690 0.163935
H15   H     H_    0.435274 0.942800 0.755289 0.163942
H16   H     H_    0.458610 0.880250 0.352159 0.147539
H17   H     H_    0.541397 0.119751 0.647838 0.147540
H18   H     H_    0.627968 0.418617 0.752432 0.132132
H19   H     H_    0.372031 0.581381 0.247568 0.132130
H20   H     H_    0.371971 0.581257 0.753996 0.126132
H21   H     H_    0.628028 0.418742 0.246004 0.126129
H22   H     H_    0.293536 0.621363 0.911413 0.126351
N1    N     N_R   0.499960 0.499900 0.743810 -0.247757
N2    N     N_R   0.500040 0.500100 0.256190 -0.247757
O1    O     O_R   0.500000 0.319630 0.582270 -0.504763
O2    O     O_R   0.500000 0.680370 0.417730 -0.504767
O3    O     O_R   0.499990 0.319660 0.417730 -0.496320
O4    O     O_R   0.500010 0.680340 0.582270 -0.496318
O5    O     O_R   0.370260 0.499960 0.582280 -0.519233
O6    O     O_R   0.629740 0.500040 0.417720 -0.519237
O7    O     O_R   0.370250 0.499990 0.417740 -0.499574
O8    O     O_R   0.629750 0.500010 0.582260 -0.499570

loop_
_geom_bond_atom_site_label_1
_geom_bond_atom_site_label_2
_ccdc_geom_bond_type
C24   C30   A    
C2    C51   A    
C1    O1    A    
Cu2   N2    S    
C22   C25   A    
C34   C48   A    
C4    H15   S    
C37   C39   A    
C29   H22   S    
C16   O7    A    
Cu1   N1    S    
C9    H16   S    
C8    H13   S    
C51   Cl2   S    
C25   C27   A    
C13   C15   A    
Cu1   O5    S    
C21   C24   A    
C3    H14   S    
Cu1   O4    S    
C17   O8    A    
C6    Cl4   S    
C10   C14   A    
C34   H10   S    
Cu2   O7    S    
C19   N2    A    
C34   C44   A    
C21   H21   S    
C50   Cl1   S    
C38   C40   A    
C12   O4    A    
Cu1   Cu2   S    
C11   C12   S    
C39   C41   A    
C35   H12   S    
C40   C42   A    
C8    C49   A    
Cu2   O3    S    
C50   C52   A    
C18   C27   A    
C21   N2    A    
C1    O3    A    
C3    C52   A    
C33   C36   A    
C12   O2    A    
C2    C4    A    
C3    C5    A    
Cu2   O2    S    
Br1   C45   S    
C4    C6    A    
C42   C44   A    
C27   C32   A    
C49   C51   A    
C30   C32   A    
C2    C14   S    
C16   C37   S    
Cu1   O1    S    
C17   C36   S    
C10   C13   A    
C31   H3    S    
C10   H17   S    
C19   H19   S    
C32   H4    S    
C33   H1    S    
C35   C46   A    
C41   C43   A    
C23   C46   A    
C45   C50   A    
C7    C45   A    
C38   H5    S    
C20   C22   A    
C11   C14   A    
C23   H9    S    
C1    C13   S    
C42   C43   A    
C43   C46   A    
C5    C7    A    
C9    C15   A    
C29   C31   A    
C47   H7    S    
C28   C31   A    
C16   O5    A    
C7    H11   S    
C41   C48   A    
C39   H6    S    
Cu2   O6    S    
C19   C28   A    
C24   C26   A    
C18   H18   S    
C20   N1    A    
C26   C28   A    
C22   C29   A    
C30   H2    S    
C35   C37   A    
C17   O6    A    
C36   C38   A    
C9    C11   A    
Cu1   O8    S    
C23   C47   A    
Br2   C49   S    
C40   C47   A    
C20   H20   S    
C6    C8    A    
C18   N1    A    
C25   C26   A    
C33   C44   A    
C48   H8    S    
C15   C52   S    
C5    Cl3   S    
