data_mof_unit_pretest_1926.cif
_audit_creation_date              2013-03-05T16:49:47-0500
_audit_creation_method            fapswitch 2.2
_symmetry_space_group_name_H-M    P1
_symmetry_Int_Tables_number       1
_space_group_crystal_system       triclinic
_cell_length_a                    10.74321
_cell_length_b                    15.852454
_cell_length_c                    15.096475
_cell_angle_alpha                 89.973908
_cell_angle_beta                  106.117979
_cell_angle_gamma                 90.009776
_cell_volume                      2469.96208747

loop_
_atom_site_label
_atom_site_type_symbol
_atom_site_description
_atom_site_fract_x
_atom_site_fract_y
_atom_site_fract_z
_atom_type_partial_charge
O1    O     O_R   0.500000 0.378020 0.573650 -0.609475
O2    O     O_R   0.500000 0.621980 0.426350 -0.609107
O3    O     O_R   0.500060 0.378020 0.426320 -0.581062
O4    O     O_R   0.499940 0.621980 0.573680 -0.575827
C1    C     C_R   0.500084 0.338964 0.500013 0.905601
C2    C     C_R   0.499914 0.661035 0.499988 0.905753
O5    O     O_R   0.317790 0.500010 0.546150 -0.598535
O6    O     O_R   0.682210 0.499990 0.453850 -0.598622
O7    O     O_R   0.317850 0.500010 0.398830 -0.563777
O8    O     O_R   0.682150 0.499990 0.601170 -0.568133
C3    C     C_R   0.256934 0.500592 0.460052 0.847982
C4    C     C_R   0.743059 0.499518 0.539942 0.848596
Zn1   Zn    Zn3+2 0.499960 0.500000 0.598370 1.091889
Zn2   Zn    Zn3+2 0.500040 0.500000 0.401630 1.092310
C5    C     C_2   0.116651 0.496887 0.432176 0.059038
C6    C     C_2   0.883278 0.503910 0.567809 0.061443
C7    C     C_2   0.055912 0.523867 0.492842 0.067863
C8    C     C_2   0.944408 0.476934 0.507354 0.065108
C9    C     C_R   0.466460 0.955876 0.571415 0.131132
C10   C     C_R   0.533413 0.044116 0.428572 0.131199
C11   C     C_R   0.499758 0.913057 0.499889 -0.069389
C12   C     C_R   0.500115 0.086937 0.500097 -0.068275
C13   C     C_R   0.533220 0.955997 0.428461 0.122134
C14   C     C_R   0.466632 0.043997 0.571519 0.120415
C15   C     C_1   0.499735 0.824080 0.499867 0.083667
C16   C     C_1   0.500180 0.175916 0.500127 0.082986
C17   C     C_1   0.500168 0.250717 0.500080 -0.092207
C18   C     C_1   0.499790 0.749280 0.499916 -0.089163
C19   C     C_R   0.422553 0.442084 0.937503 0.104713
C20   C     C_R   0.574621 0.559047 0.061904 0.103441
C21   C     C_R   0.498565 0.500722 0.904767 -0.207064
C22   C     C_R   0.498601 0.500457 0.094675 -0.207418
C23   C     C_R   0.575284 0.559073 0.967797 0.257242
C24   C     C_R   0.422904 0.441452 0.031868 0.256390
C25   C     C_1   0.499501 0.500258 0.806923 0.304758
C26   C     C_1   0.499529 0.500126 0.192885 0.304883
N1    N     N_1   0.499960 0.500020 0.270540 -0.058905
N2    N     N_1   0.500040 0.499980 0.729460 -0.059430
I1    I     I_    0.885526 0.355350 0.445671 -0.150139
I2    I     I_    0.115318 0.645418 0.554377 -0.141955
N3    N     N_R   0.951287 0.538626 0.656197 0.229773
O9    O     O_R   0.894472 0.592459 0.697193 -0.298561
O10   O     O_R   0.064093 0.508669 0.700821 -0.322538
N4    N     N_R   0.048016 0.463232 0.343379 0.231251
O11   O     O_R   0.104156 0.409800 0.301461 -0.289097
O12   O     O_R   0.935218 0.493689 0.299459 -0.319512
I3    I     I_    0.416705 0.113435 0.678593 -0.149108
I4    I     I_    0.583079 0.886560 0.321360 -0.150073
I5    I     I_    0.416316 0.886223 0.678328 -0.091995
I6    I     I_    0.583613 0.113757 0.321675 -0.103121
N5    N     N_R   0.345982 0.380710 0.063766 0.230628
O13   O     O_R   0.266088 0.405046 0.109600 -0.305232
O14   O     O_R   0.363035 0.300436 0.053475 -0.294658
N6    N     N_R   0.654147 0.618707 0.936321 0.231595
O15   O     O_R   0.602887 0.667658 0.866508 -0.323487
O16   O     O_R   0.779052 0.619500 0.972541 -0.277536
I7    I     I_    0.300624 0.356811 0.842187 -0.046990
I8    I     I_    0.684156 0.651361 0.154458 -0.051401

loop_
_geom_bond_atom_site_label_1
_geom_bond_atom_site_label_2
_geom_bond_distance
_ccdc_geom_bond_type
O5    C3    1.282618 A    
O7    Zn2   1.945993 S    
C21   C23   1.416140 A    
C2    C18   1.398910 S    
N3    O10   1.301795 A    
N3    O9    1.301626 A    
C9    I5    2.143686 S    
C10   C13   1.396916 A    
O6    C4    1.282517 A    
C8    I1    2.157856 S    
C9    C14   1.396947 A    
C16   C17   1.185775 T    
C19   C21   1.413710 A    
Zn2   N1    1.978759 S    
C20   C22   1.413538 A    
O7    C3    1.272173 A    
Zn1   N2    1.978760 S    
O2    C2    1.272913 A    
O3    Zn2   1.969100 S    
O8    C4    1.272180 A    
C19   C24   1.423566 A    
O1    C1    1.272910 A    
C20   I8    2.137034 S    
C21   C25   1.479942 S    
C6    C8    1.334294 D    
C26   N1    1.171034 T    
C9    C11   1.403515 A    
N4    O12   1.301928 A    
C5    N4    1.441191 S    
C7    C8    1.477079 S    
C12   C14   1.403533 A    
C11   C13   1.403507 A    
C4    C6    1.448866 S    
O2    Zn2   1.969552 S    
N6    O16   1.300920 A    
O1    Zn1   1.969555 S    
C10   C12   1.403514 A    
N5    O14   1.301204 A    
N5    O13   1.301689 A    
C22   C26   1.479893 S    
O5    Zn1   1.896058 S    
C25   N2    1.171048 T    
N4    O11   1.301621 A    
O4    C2    1.272851 A    
C12   C16   1.410537 S    
C23   N6    1.435320 S    
C5    C7    1.334084 D    
C11   C15   1.410515 S    
N6    O15   1.301287 A    
C10   I6    2.143663 S    
C13   I4    2.143688 S    
O6    Zn2   1.896059 S    
C20   C23   1.422687 A    
O3    C1    1.272868 A    
C1    C17   1.398941 S    
C14   I3    2.143705 S    
C3    C5    1.449038 S    
C6    N3    1.440966 S    
C7    I2    2.157586 S    
C24   N5    1.436064 S    
O4    Zn1   1.969098 S    
C19   I7    2.137372 S    
C15   C18   1.185756 T    
O8    Zn1   1.945995 S    
C22   C24   1.416929 A    
