data_mof_unit_pretest_1123.cif
_audit_creation_date              2012-12-10T17:39:18-0500
_audit_creation_method            fapswitch 2.2
_symmetry_space_group_name_H-M    P1
_symmetry_Int_Tables_number       1
_space_group_crystal_system       triclinic
_cell_length_a                    12.314571
_cell_length_b                    13.173193
_cell_length_c                    27.769402
_cell_angle_alpha                 77.773866
_cell_angle_beta                  101.102684
_cell_angle_gamma                 116.420895
_cell_volume                      3917.81863885

loop_
_atom_site_label
_atom_site_type_symbol
_atom_type_description
_atom_site_fract_x
_atom_site_fract_y
_atom_site_fract_z
_atom_type_partial_charge
C1    C     C_R   0.854906 0.286439 0.507587 0.833720
C2    C     C_R   0.905040 0.517905 0.711385 0.472275
C3    C     C_R   0.994196 0.496854 0.746356 0.346510
C4    C     C_R   0.998358 0.495368 0.898669 -0.127116
C5    C     C_R   0.914906 0.397469 0.875994 -0.069117
C6    C     C_R   0.831745 0.300650 0.904975 0.158893
C7    C     C_R   0.079837 0.593997 0.870186 -0.058830
C8    C     C_R   0.997103 0.498444 0.645416 -0.071951
C9    C     C_R   0.000494 0.498472 0.354687 -0.073555
C10   C     C_R   0.940345 0.390794 0.031347 0.008662
C11   C     C_R   0.065872 0.596482 0.021566 0.069637
C12   C     C_R   0.999123 0.499502 0.592445 0.811374
C13   C     C_R   0.003606 0.493158 0.051944 0.073433
C14   C     C_R   0.901236 0.286620 0.063777 -0.321182
C15   C     C_R   0.906783 0.283637 0.115070 0.453749
C16   C     C_R   0.954370 0.387696 0.134721 -0.069337
C17   C     C_R   0.004118 0.492475 0.102992 -0.127677
C18   C     C_R   0.054124 0.597043 0.122073 0.001487
C19   C     C_R   0.052360 0.595691 0.172464 0.534290
C20   C     C_R   0.955334 0.391149 0.185282 0.574557
C21   C     C_R   0.904394 0.507232 0.269405 0.211662
C22   C     C_R   0.905788 0.509196 0.319737 -0.220617
C23   C     C_R   0.144910 0.713324 0.494427 0.805570
C24   C     C_R   0.094706 0.485885 0.338732 -0.210296
C25   C     C_R   0.094400 0.484371 0.288720 -0.143502
C26   C     C_R   0.000092 0.495059 0.253915 0.357299
C27   C     C_R   0.921984 0.395762 0.978896 0.031001
C28   C     C_R   0.000371 0.494637 0.949929 -0.010003
C29   C     C_R   0.080757 0.592790 0.972546 0.005788
C30   C     C_R   0.826954 0.306688 0.954636 0.164319
C31   C     C_R   0.164905 0.690138 0.893935 0.161343
C32   C     C_R   0.107217 0.700139 0.040615 -0.217587
C33   C     C_R   0.102207 0.700441 0.090208 -0.144371
C34   C     C_R   0.000360 0.499785 0.407583 0.799076
C35   C     C_R   0.173720 0.682638 0.945903 0.158786
C36   C     C_R   0.282907 0.016930 0.436020 -0.129926
C37   C     C_R   0.227404 0.835362 0.488994 -0.131813
C38   C     C_R   0.806321 0.105072 0.565700 0.396966
C39   C     C_R   0.714232 0.012297 0.591321 0.091636
C40   C     C_R   0.592317 0.979517 0.571311 -0.137053
C41   C     C_R   0.558917 0.025842 0.523129 0.050940
C42   C     C_R   0.650300 0.122346 0.498779 -0.061468
C43   C     C_R   0.436520 0.983201 0.499438 -0.007907
C44   C     C_R   0.405068 0.050766 0.456697 0.046002
C45   C     C_R   0.914895 0.402348 0.824493 0.601707
C46   C     C_R   0.496313 0.147551 0.433361 0.406177
C47   C     C_R   0.618115 0.177013 0.452632 -0.247272
C48   C     C_R   0.346102 0.872845 0.514708 0.345359
C49   C     C_R   0.194616 0.910517 0.452421 -0.275212
C50   C     C_R   0.772121 0.165794 0.521739 -0.149509
C51   C     C_R   0.347522 0.329716 0.579328 -0.295068
C52   C     C_R   0.759075 0.644737 0.432850 0.077153
C53   C     C_R   0.662019 0.675680 0.418073 -0.243136
C54   C     C_R   0.558589 0.620867 0.443234 -0.172965
C55   C     C_R   0.551048 0.533949 0.483821 0.000850
C56   C     C_R   0.076305 0.590399 0.819227 0.571922
C57   C     C_R   0.653050 0.505207 0.497637 0.292636
C58   C     C_R   0.446863 0.474832 0.511253 -0.030762
C59   C     C_R   0.447185 0.388650 0.551644 0.171880
C60   C     C_R   0.547099 0.361913 0.564413 -0.278412
C61   C     C_R   0.647655 0.419022 0.538160 -0.187119
C62   C     C_R   0.341629 0.497169 0.500679 0.056734
C63   C     C_R   0.247486 0.356167 0.567155 0.089942
C64   C     C_R   0.083675 0.476551 0.731042 -0.204972
C65   C     C_R   0.085272 0.477317 0.680985 -0.208420
C66   C     C_R   0.906916 0.518397 0.660862 -0.330799
Cu1   Cu    Cu3+1 0.098270 0.475420 0.511360 0.978341
Cu2   Cu    Cu3+1 0.901730 0.524580 0.488640 0.928365
H1    H     H_    0.838213 0.534537 0.633789 0.162137
H2    H     H_    0.152254 0.460291 0.758126 0.155868
H3    H     H_    0.141119 0.781814 0.017093 0.164119
H4    H     H_    0.168949 0.477598 0.364827 0.166268
H5    H     H_    0.136763 0.782056 0.103491 0.186810
H6    H     H_    0.167822 0.475023 0.276838 0.149899
H7    H     H_    0.103121 0.882930 0.433124 0.174534
H8    H     H_    0.256206 0.069509 0.404928 0.206003
H9    H     H_    0.524725 0.921770 0.595495 0.201334
H10   H     H_    0.687708 0.244962 0.431424 0.150696
H11   H     H_    0.170475 0.311382 0.588499 0.165234
H12   H     H_    0.547954 0.296145 0.595306 0.160829
H13   H     H_    0.347193 0.263823 0.610291 0.146901
H14   H     H_    0.333299 0.560957 0.470640 0.124959
H15   H     H_    0.838971 0.687725 0.413103 0.130246
H16   H     H_    0.486251 0.648279 0.430179 0.141092
H17   H     H_    0.666959 0.742378 0.386997 0.157095
H18   H     H_    0.719398 0.392552 0.551287 0.207120
H19   H     H_    0.832097 0.518442 0.331521 0.163690
H20   H     H_    0.868443 0.206663 0.049480 0.160038
H21   H     H_    0.155709 0.461491 0.670200 0.172664
N1    N     N_R   0.994804 0.496667 0.798134 -0.443397
N2    N     N_R   0.002981 0.493920 0.202684 -0.484096
N3    N     N_R   0.246290 0.438210 0.528570 -0.186741
N4    N     N_R   0.754320 0.561170 0.471730 -0.207536
O1    O     O_R   0.972510 0.318140 0.514280 -0.520262
O2    O     O_2   0.908102 0.293313 0.216876 -0.456120
O3    O     O_2   0.154128 0.678414 0.790428 -0.551603
O4    O     O_2   0.099207 0.695151 0.191227 -0.529251
O5    O     O_R   0.806530 0.359640 0.495100 -0.614457
O6    O     O_R   0.082990 0.479270 0.579320 -0.582831
O7    O     O_R   0.917010 0.520770 0.560140 -0.604500
O8    O     O_R   0.193470 0.640360 0.504900 -0.552477
O9    O     O_R   0.027490 0.681860 0.485720 -0.587114
O10   O     O_R   0.082990 0.479230 0.439860 -0.589163
O11   O     O_R   0.917010 0.520730 0.420680 -0.595928
O12   O     O_2   0.835411 0.314938 0.800075 -0.542855
C67   C     C_3   0.246147 0.801782 0.864909 -0.742185
H22   H     H_    0.293983 0.873043 0.887224 0.209671
H23   H     H_    0.316771 0.789972 0.850177 0.256000
H24   H     H_    0.189847 0.832147 0.834492 0.255924
C68   C     C_3   0.294254 0.756342 0.973140 -0.875542
H25   H     H_    0.371680 0.762937 0.955786 0.242885
H26   H     H_    0.301502 0.843818 0.972039 0.225295
H27   H     H_    0.306795 0.717823 0.012224 0.246555
O13   O     O_3   0.465203 0.208685 0.390322 -0.737027
H28   H     H_    0.539850 0.274837 0.379110 0.326504
O14   O     O_3   0.818205 0.538167 0.727545 -0.714802
H29   H     H_    0.762490 0.551179 0.698500 0.320811
O15   O     O_3   0.377513 0.796756 0.550087 -0.735623
H30   H     H_    0.309813 0.753600 0.571125 0.320019
O16   O     O_3   0.928134 0.146122 0.584840 -0.741791
H31   H     H_    0.942167 0.090701 0.612452 0.330703
C69   C     C_3   0.742595 0.952629 0.641583 -0.855499
H32   H     H_    0.790535 0.015713 0.668029 0.241877
H33   H     H_    0.658774 0.885479 0.657223 0.242627
H34   H     H_    0.800621 0.910067 0.638493 0.237320
C70   C     C_3   0.748332 0.189821 0.884212 -0.747154
H35   H     H_    0.701956 0.117922 0.912736 0.209689
H36   H     H_    0.676450 0.202585 0.856089 0.261101
H37   H     H_    0.802732 0.159751 0.868109 0.250400
C71   C     C_3   0.799893 0.517697 0.233691 -0.816279
H38   H     H_    0.798283 0.600962 0.234414 0.236964
H39   H     H_    0.806163 0.512961 0.194999 0.234603
H40   H     H_    0.712568 0.447284 0.244919 0.233757
O17   O     O_3   0.865628 0.180167 0.146053 -0.662797
H41   H     H_    0.834597 0.116452 0.126211 0.318308
C72   C     C_3   0.708420 0.232216 0.977493 -0.868079
H42   H     H_    0.629138 0.226049 0.949310 0.242495
H43   H     H_    0.701894 0.144647 0.991879 0.224720
H44   H     H_    0.698499 0.269836 0.007656 0.246258

loop_
_geom_bond_atom_site_label_1
_geom_bond_atom_site_label_2
_ccdc_geom_bond_type
C10   C27   A    
C58   C62   A    
C21   C26   A    
C8    C66   A    
C70   H35   S    
C41   C42   A    
C54   H16   S    
O13   H28   S    
C19   O4    S    
Cu1   O10   S    
C15   O17   S    
C63   H11   S    
C53   C54   A    
C52   C53   A    
C65   H21   S    
C24   H4    S    
C39   C69   S    
C3    N1    S    
C28   C29   A    
Cu2   O9    S    
C25   H6    S    
C4    C7    A    
C5    C6    A    
C9    C22   A    
C23   O9    A    
C67   H22   S    
C15   C16   A    
O14   H29   S    
C18   C19   A    
C46   C47   A    
O15   H30   S    
C12   O6    A    
C36   H8    S    
C68   H25   S    
C2    O14   S    
C44   C46   A    
C16   C17   A    
C62   N3    A    
C63   N3    A    
Cu1   O1    S    
C49   H7    S    
C64   H2    S    
C43   C48   A    
C51   H13   S    
C16   C20   A    
C38   O16   S    
C56   N1    A    
C62   H14   S    
C8    C65   A    
C57   N4    A    
C21   C22   A    
C27   C30   A    
C41   C43   A    
C7    C56   A    
C72   H44   S    
C4    C28   A    
C45   O12   S    
C32   H3    S    
Cu2   O5    S    
C38   C39   A    
C20   N2    A    
C7    C31   A    
C46   O13   S    
Cu1   Cu2   S    
C51   C63   A    
C24   C25   A    
C6    C70   S    
C72   H43   S    
C10   C14   A    
C39   C40   A    
C1    O1    A    
C48   O15   S    
C70   H37   S    
C26   N2    S    
C23   C37   S    
C5    C45   A    
C34   O11   A    
C60   C61   A    
C52   H15   S    
C71   H39   S    
C43   C44   A    
Cu2   O7    S    
C37   C49   A    
C8    C12   S    
C17   C18   A    
C52   N4    A    
C22   H19   S    
C37   C48   A    
C45   N1    A    
C68   H27   S    
C35   C68   S    
C42   C50   A    
C33   H5    S    
C40   C41   A    
C6    C30   A    
C20   O2    S    
C11   C32   A    
C30   C72   S    
C55   C57   A    
C9    C34   S    
C31   C67   S    
C31   C35   A    
C36   C44   A    
C71   H40   S    
C51   C59   A    
C69   H33   S    
O16   H31   S    
Cu1   O8    S    
C1    C50   S    
C56   O3    S    
C54   C55   A    
C60   H12   S    
C70   H36   S    
C14   C15   A    
C58   C59   A    
Cu2   O11   S    
C72   H42   S    
C2    C66   A    
C10   C13   A    
C1    O5    A    
C9    C24   A    
C57   C61   A    
O17   H41   S    
C38   C50   A    
Cu1   O6    S    
C29   C35   A    
Cu2   N4    S    
C13   C17   A    
C32   C33   A    
C69   H34   S    
C71   H38   S    
C25   C26   A    
C14   H20   S    
C64   C65   A    
C11   C13   A    
C23   O8    A    
C67   H23   S    
C4    C5    A    
C34   O10   A    
Cu1   N3    S    
C2    C3    A    
C42   C47   A    
C3    C64   A    
C18   C33   A    
C68   H26   S    
C21   C71   S    
C12   O7    A    
C19   N2    A    
C61   H18   S    
C66   H1    S    
C59   C60   A    
C11   C29   A    
C55   C58   A    
C27   C28   A    
C40   H9    S    
C53   H17   S    
C47   H10   S    
C69   H32   S    
C36   C49   A    
C67   H24   S    
