data_mof_unit_pretest_254.cif
_audit_creation_date              2012-12-10T17:41:02-0500
_audit_creation_method            fapswitch 2.2
_symmetry_space_group_name_H-M    P1
_symmetry_Int_Tables_number       1
_space_group_crystal_system       triclinic
_cell_length_a                    14.437728
_cell_length_b                    15.655755
_cell_length_c                    10.045163
_cell_angle_alpha                 89.870116
_cell_angle_beta                  92.380936
_cell_angle_gamma                 90.561963
_cell_volume                      2268.47048801

loop_
_atom_site_label
_atom_site_type_symbol
_atom_type_description
_atom_site_fract_x
_atom_site_fract_y
_atom_site_fract_z
_atom_type_partial_charge
C1    C     C_R   0.382410 0.878856 0.498687 0.911555
C2    C     C_R   0.660962 0.266805 0.510251 -0.165900
C3    C     C_R   0.206725 0.274389 0.391037 -0.128996
C4    C     C_R   0.160963 0.766804 0.510260 -0.165905
C5    C     C_R   0.702149 0.827106 0.502280 -0.093310
C6    C     C_R   0.689295 0.182448 0.504283 -0.037438
C7    C     C_R   0.202150 0.327108 0.502283 -0.093316
C8    C     C_R   0.189295 0.682448 0.504283 -0.037437
C9    C     C_R   0.322276 0.978079 0.115454 0.384075
C10   C     C_R   0.822277 0.478076 0.115454 0.384076
C11   C     C_R   0.245309 0.960866 0.030067 -0.166803
C12   C     C_R   0.386728 0.124504 0.498951 0.916193
C13   C     C_R   0.745311 0.460860 0.030067 -0.166798
C14   C     C_R   0.250720 0.967949 0.895221 0.130531
C15   C     C_R   0.750721 0.467944 0.895220 0.130527
C16   C     C_R   0.334809 0.985040 0.842248 -0.139794
C17   C     C_R   0.834809 0.485039 0.842248 -0.139796
C18   C     C_R   0.417639 0.989665 0.920558 0.037176
C19   C     C_R   0.917638 0.489664 0.920558 0.037177
C20   C     C_R   0.415091 0.989743 0.064919 -0.013790
C21   C     C_R   0.915091 0.489742 0.064918 -0.013790
C22   C     C_R   0.578856 0.009374 0.077619 0.411974
C23   C     C_R   0.882407 0.378858 0.498687 0.911557
C24   C     C_R   0.078856 0.509374 0.077619 0.411974
C25   C     C_R   0.619236 0.119586 0.501412 0.829048
C26   C     C_R   0.625010 0.884823 0.501757 0.821097
C27   C     C_R   0.119234 0.619588 0.501412 0.829053
C28   C     C_R   0.125011 0.384823 0.501758 0.821101
C29   C     C_R   0.577971 0.016834 0.936355 0.157540
C30   C     C_R   0.077971 0.516833 0.936355 0.157527
C31   C     C_R   0.411127 0.259056 0.703963 -0.240632
C32   C     C_R   0.443562 0.703368 0.478205 -0.229594
C33   C     C_R   0.911124 0.759058 0.703960 -0.240640
C34   C     C_R   0.886728 0.624502 0.498951 0.916192
C35   C     C_R   0.943564 0.203371 0.478225 -0.229588
C36   C     C_R   0.411075 0.315513 0.810797 0.460425
C37   C     C_R   0.470114 0.617846 0.471838 0.473173
C38   C     C_R   0.911078 0.815522 0.810785 0.460419
C39   C     C_R   0.970117 0.117851 0.471859 0.473170
C40   C     C_R   0.846234 0.880347 0.811211 -0.136914
C41   C     C_R   0.903632 0.052993 0.476900 -0.131332
C42   C     C_R   0.346224 0.380331 0.811235 -0.136925
C43   C     C_R   0.403626 0.552990 0.476884 -0.131328
C44   C     C_R   0.779637 0.886589 0.707283 -0.250531
C45   C     C_R   0.273042 0.213297 0.387031 -0.083582
C46   C     C_R   0.810541 0.073317 0.487339 -0.185057
C47   C     C_R   0.279629 0.386577 0.707305 -0.250543
C48   C     C_R   0.310537 0.573316 0.487333 -0.185039
C49   C     C_R   0.772491 0.825170 0.605066 0.096259
C50   C     C_R   0.782611 0.159426 0.493570 0.115316
C51   C     C_R   0.272490 0.325166 0.605075 0.096265
C52   C     C_R   0.282609 0.659425 0.493564 0.115318
C53   C     C_R   0.339730 0.260829 0.602419 0.029920
C54   C     C_R   0.349328 0.724829 0.489149 0.020102
C55   C     C_R   0.839729 0.760829 0.602416 0.029920
C56   C     C_R   0.226078 0.830775 0.505422 -0.110211
C57   C     C_R   0.849330 0.224830 0.489158 0.020105
C58   C     C_R   0.333929 0.201410 0.496299 -0.099953
C59   C     C_R   0.318915 0.809939 0.495804 -0.072699
C60   C     C_R   0.833926 0.701407 0.496299 -0.099948
C61   C     C_R   0.818915 0.309940 0.495804 -0.072699
C62   C     C_R   0.773038 0.713293 0.387033 -0.083580
C63   C     C_R   0.726076 0.330775 0.505415 -0.110218
C64   C     C_R   0.706720 0.774384 0.391038 -0.129002
Cl1   Cl    Cl    0.492948 0.304866 0.943868 -0.567642
Cl2   Cl    Cl    0.586753 0.591428 0.456200 -0.594157
Cl3   Cl    Cl    0.992951 0.804876 0.943861 -0.567636
Cl4   Cl    Cl    0.086760 0.091436 0.456236 -0.594157
Cl5   Cl    Cl    0.684672 0.011470 0.171803 -0.552492
Cl6   Cl    Cl    0.184672 0.511471 0.171806 -0.552498
Cl7   Cl    Cl    0.276656 0.999029 0.269800 -0.590684
Cl8   Cl    Cl    0.776655 0.499028 0.269798 -0.590685
H1    H     H_    0.271988 0.171699 0.301306 0.220923
H2    H     H_    0.996605 0.252294 0.473879 0.146597
H3    H     H_    0.848329 0.926838 0.890895 0.211013
H4    H     H_    0.923914 0.986677 0.472312 0.181639
H5    H     H_    0.348313 0.426813 0.890926 0.211016
H6    H     H_    0.423906 0.486673 0.472295 0.181637
H7    H     H_    0.735738 0.940982 0.705787 0.198973
H8    H     H_    0.760847 0.021346 0.490194 0.148585
H9    H     H_    0.235724 0.440962 0.705820 0.198994
H10   H     H_    0.260843 0.521346 0.490197 0.148587
H11   H     H_    0.655992 0.777336 0.308523 0.190609
H12   H     H_    0.204322 0.896751 0.509037 0.211693
H13   H     H_    0.588398 0.282890 0.517010 0.148369
H14   H     H_    0.155999 0.277342 0.308520 0.190608
H15   H     H_    0.088399 0.782892 0.517023 0.148370
H16   H     H_    0.176852 0.950332 0.068231 0.238227
H17   H     H_    0.676853 0.450323 0.068230 0.238228
H18   H     H_    0.771982 0.671696 0.301310 0.220930
H19   H     H_    0.704318 0.396750 0.509024 0.211696
H20   H     H_    0.331465 0.997657 0.738768 0.233466
H21   H     H_    0.831466 0.497657 0.738768 0.233464
H22   H     H_    0.468781 0.215896 0.701582 0.200429
H23   H     H_    0.496603 0.752289 0.473851 0.146593
H24   H     H_    0.968777 0.715893 0.701588 0.200433
I1    I     I_    0.128665 0.965498 0.772233 -0.261683
I2    I     I_    0.628667 0.465490 0.772230 -0.261686
I3    I     I_    0.698031 0.079142 0.864621 -0.232697
I4    I     I_    0.198034 0.579136 0.864618 -0.232702
N1    N     N_R   0.498810 0.000000 0.142780 -0.143605
N2    N     N_R   0.998810 0.500000 0.142780 -0.143603
N3    N     N_R   0.498740 0.000000 0.857170 -0.145213
N4    N     N_R   0.998740 0.500000 0.857170 -0.145212
O1    O     O_R   0.408390 0.908380 0.614690 -0.633524
O2    O     O_R   0.591620 0.908390 0.614640 -0.613831
O3    O     O_R   0.091620 0.591610 0.614640 -0.614375
O4    O     O_R   0.091620 0.408390 0.614640 -0.613840
O5    O     O_R   0.591610 0.091610 0.385310 -0.553860
O6    O     O_R   0.591610 0.908390 0.385310 -0.587076
O7    O     O_R   0.091610 0.591610 0.385310 -0.553860
O8    O     O_R   0.091610 0.408390 0.385310 -0.587071
O9    O     O_R   0.408390 0.091620 0.614690 -0.650550
O10   O     O_R   0.908390 0.408380 0.614690 -0.633525
O11   O     O_R   0.908390 0.591620 0.614690 -0.650560
O12   O     O_R   0.408370 0.908380 0.385360 -0.561157
O13   O     O_R   0.408370 0.091620 0.385360 -0.565566
O14   O     O_R   0.908370 0.408380 0.385360 -0.561158
O15   O     O_R   0.908370 0.591620 0.385360 -0.565570
O16   O     O_R   0.591620 0.091610 0.614640 -0.614376
Zn1   Zn    Zn3+2 0.500010 0.000000 0.653130 0.974360
Zn2   Zn    Zn3+2 0.000010 0.500000 0.653130 0.974354
Zn3   Zn    Zn3+2 0.499980 0.000000 0.346870 1.055392
Zn4   Zn    Zn3+2 0.999980 0.500000 0.346870 1.055392

loop_
_geom_bond_atom_site_label_1
_geom_bond_atom_site_label_2
_ccdc_geom_bond_type
C44   C49   A    
C33   C55   A    
C38   C40   A    
C33   H24   S    
C35   H2    S    
O12   Zn3   S    
C39   Cl4   S    
C36   C42   A    
C4    C8    A    
C26   O2    A    
C23   O14   A    
C24   Cl6   S    
C39   C41   A    
C4    H15   S    
O15   Zn4   S    
C28   O8    A    
C43   H6    S    
N1    Zn3   S    
C22   N1    A    
C45   H1    S    
C19   C21   A    
O8    Zn4   S    
C48   C52   A    
C3    C7    A    
C1    C59   S    
C11   C14   A    
C6    C25   S    
N4    Zn2   S    
C30   I4    S    
C29   N3    A    
C2    H13   S    
C60   C62   A    
C63   H19   S    
C61   C63   A    
C62   C64   A    
C41   C46   A    
C1    O12   A    
C43   C48   A    
C8    C52   A    
C22   Cl5   S    
C24   N2    A    
C25   O5    A    
C18   N3    A    
C12   C58   S    
C27   O7    A    
O11   Zn2   S    
C55   C60   A    
C4    C56   A    
C3    H14   S    
C34   C60   S    
C5    C49   A    
C2    C6    A    
N2    Zn4   S    
C32   C54   A    
C52   C54   A    
C56   H12   S    
C54   C59   A    
C10   C21   A    
C45   C58   A    
C29   I3    S    
C36   Cl1   S    
O5    Zn3   S    
C47   C51   A    
C20   N1    A    
C34   O11   A    
C49   C55   A    
C3    C45   A    
C6    C50   A    
C7    C28   S    
C12   O13   A    
C5    C64   A    
C51   C53   A    
C37   C43   A    
C35   C39   A    
C64   H11   S    
O6    Zn3   S    
C19   N4    A    
C9    C20   A    
C27   O3    A    
C11   H16   S    
C37   Cl2   S    
O1    Zn1   S    
O14   Zn4   S    
C32   C37   A    
C31   C53   A    
C9    C11   A    
C21   N2    A    
C16   H20   S    
C13   C15   A    
C14   C16   A    
C17   H21   S    
C15   I2    S    
C30   N4    A    
N3    Zn1   S    
C25   O16   A    
O16   Zn1   S    
C14   I1    S    
C12   O9    A    
C23   C61   S    
C34   O15   A    
C15   C17   A    
C26   O6    A    
C2    C63   A    
C13   H17   S    
O7    Zn4   S    
C50   C57   A    
C44   H7    S    
C9    Cl7   S    
O4    Zn2   S    
C10   C13   A    
C53   C58   A    
C56   C59   A    
C57   C61   A    
C31   H22   S    
C46   C50   A    
C33   C38   A    
C40   H3    S    
C35   C57   A    
O13   Zn3   S    
C7    C51   A    
C41   H4    S    
C46   H8    S    
C28   O4    A    
C62   H18   S    
O2    Zn1   S    
C17   C19   A    
C48   H10   S    
C18   C20   A    
C42   C47   A    
C47   H9    S    
C24   C30   A    
C5    C26   S    
O10   Zn2   S    
C40   C44   A    
C32   H23   S    
O9    Zn1   S    
C38   Cl3   S    
C42   H5    S    
C16   C18   A    
C22   C29   A    
C8    C27   S    
C31   C36   A    
O3    Zn2   S    
C1    O1    A    
C23   O10   A    
C10   Cl8   S    
