data_mof_unit_pretest_446.cif
_audit_creation_date              2012-12-10T19:48:40-0500
_audit_creation_method            fapswitch 2.2
_symmetry_space_group_name_H-M    P1
_symmetry_Int_Tables_number       1
_space_group_crystal_system       triclinic
_cell_length_a                    13.172225
_cell_length_b                    14.261292
_cell_length_c                    14.913309
_cell_angle_alpha                 90.036876
_cell_angle_beta                  91.901666
_cell_angle_gamma                 70.222801
_cell_volume                      2634.6446361

loop_
_atom_site_label
_atom_site_type_symbol
_atom_type_description
_atom_site_fract_x
_atom_site_fract_y
_atom_site_fract_z
_atom_type_partial_charge
C1    C     C_R   0.500209 0.499980 0.672054 0.909173
C2    C     C_R   0.980709 0.458534 0.507715 0.089208
C3    C     C_R   0.877339 0.469153 0.470781 0.098976
C4    C     C_R   0.027897 0.530701 0.484498 0.077435
C5    C     C_R   0.975122 0.607056 0.420489 0.184546
C6    C     C_R   0.877843 0.610095 0.379165 -0.273815
C7    C     C_R   0.830424 0.541037 0.402827 -0.226041
C8    C     C_R   0.127871 0.527531 0.520830 -0.268026
C9    C     C_R   0.126139 0.667312 0.428316 -0.209499
C10   C     C_R   0.821250 0.409169 0.504265 -0.107105
C11   C     C_R   0.460568 0.452283 0.910956 -0.275403
C12   C     C_R   0.703865 0.444654 0.498444 0.851992
C13   C     C_R   0.443120 0.460440 0.818750 0.208478
C14   C     C_R   0.509456 0.497292 0.768082 -0.110015
C15   C     C_R   0.591042 0.526373 0.808839 -0.265179
C16   C     C_R   0.607340 0.520423 0.901545 0.246189
C17   C     C_R   0.540894 0.482863 0.952217 -0.012703
C18   C     C_R   0.559290 0.397692 0.097487 -0.187078
C19   C     C_R   0.544687 0.402381 0.188910 -0.203354
C20   C     C_R   0.514855 0.494893 0.231708 -0.027358
C21   C     C_R   0.501589 0.582347 0.182895 -0.211450
C22   C     C_R   0.515235 0.577575 0.091333 -0.164674
C23   C     C_R   0.502097 0.499267 0.327561 0.850663
C24   C     C_R   0.543647 0.485367 0.048877 0.124031
C25   C     C_R   0.409941 0.922391 0.527873 -0.312214
C26   C     C_R   0.411904 0.822940 0.527917 0.007533
C27   C     C_R   0.587710 0.768457 0.471766 -0.000551
C28   C     C_R   0.589414 0.866627 0.471485 -0.256176
C29   C     C_R   0.499499 0.945523 0.499237 0.216544
C30   C     C_R   0.439702 0.121026 0.434916 0.097744
C31   C     C_R   0.435391 0.222232 0.438706 0.206840
C32   C     C_R   0.564228 0.182225 0.561693 0.169736
C33   C     C_R   0.562605 0.082020 0.563624 0.118595
C34   C     C_R   0.296213 0.555321 0.499517 0.871421
C35   C     C_R   0.499676 0.051445 0.499831 -0.068511
C36   C     C_R   0.022823 0.677091 0.395696 -0.205270
C37   C     C_R   0.179931 0.589338 0.487793 -0.048928
C38   C     C_R   0.874628 0.326746 0.559534 -0.200587
C39   C     C_R   0.980409 0.309447 0.588783 -0.141633
C40   C     C_R   0.031923 0.376297 0.566317 -0.200632
H1    H     H_    0.166647 0.715616 0.402230 0.149848
H2    H     H_    0.643997 0.550842 0.767876 0.165627
H3    H     H_    0.579776 0.326483 0.064122 0.134228
H4    H     H_    0.556454 0.333884 0.225815 0.152725
H5    H     H_    0.478642 0.654334 0.215000 0.155808
H6    H     H_    0.499852 0.645825 0.053150 0.138537
H7    H     H_    0.339232 0.980914 0.550512 0.134608
H8    H     H_    0.342650 0.806168 0.550374 0.127419
H9    H     H_    0.657030 0.709160 0.449056 0.145851
H10   H     H_    0.838406 0.665774 0.328126 0.144368
H11   H     H_    0.660180 0.881003 0.449078 0.137592
H12   H     H_    0.983017 0.735526 0.347093 0.133205
H13   H     H_    0.171996 0.472283 0.569840 0.146844
H14   H     H_    0.832614 0.279341 0.584719 0.136462
H15   H     H_    0.111774 0.360367 0.595616 0.124303
H16   H     H_    0.020828 0.246850 0.633070 0.137161
H17   H     H_    0.756023 0.544559 0.367523 0.160335
H18   H     H_    0.408140 0.426164 0.951141 0.152087
N1    N     N_R   0.500000 0.747530 0.500020 -0.089908
N2    N     N_R   0.499940 0.252470 0.500020 -0.151155
O1    O     O_R   0.499990 0.420530 0.630930 -0.597361
O2    O     O_R   0.499990 0.579480 0.630940 -0.617540
O3    O     O_R   0.653620 0.381060 0.499970 -0.639593
O4    O     O_R   0.653620 0.540010 0.499980 -0.616301
O5    O     O_R   0.500010 0.420520 0.369060 -0.647698
O6    O     O_R   0.500010 0.579470 0.369070 -0.620018
O7    O     O_R   0.346380 0.459990 0.500020 -0.608403
O8    O     O_R   0.346380 0.618940 0.500030 -0.626599
Zn1   Zn    Zn3+2 0.500000 0.393860 0.499990 0.921231
Zn2   Zn    Zn3+2 0.500000 0.606140 0.500010 0.933712
N3    N     N_2   0.357472 0.433967 0.777908 -0.303009
H19   H     H_    0.340386 0.378410 0.811947 0.216293
C41   C     C_3   0.261095 0.518020 0.756745 -0.785859
H20   H     H_    0.229560 0.559593 0.818700 0.238752
H21   H     H_    0.197970 0.491046 0.726768 0.229778
H22   H     H_    0.278243 0.568880 0.707771 0.235612
N4    N     N_2   0.693999 0.546139 0.942141 -0.307747
H23   H     H_    0.716828 0.520390 0.006829 0.230944
C42   C     C_3   0.689620 0.647952 0.928344 -0.800416
H24   H     H_    0.760691 0.659181 0.962640 0.238159
H25   H     H_    0.615120 0.700680 0.956553 0.231623
H26   H     H_    0.691839 0.664582 0.855910 0.248301
N5    N     N_2   0.383835 0.089961 0.363620 -0.297325
H27   H     H_    0.340269 0.046018 0.383124 0.233916
C43   C     C_3   0.448418 0.050974 0.286693 -0.806648
H28   H     H_    0.396303 0.037542 0.231683 0.239248
H29   H     H_    0.513083 0.979436 0.304370 0.240706
H30   H     H_    0.485584 0.104994 0.262180 0.236276
C44   C     C_3   0.353480 0.294575 0.374859 -0.331221
C45   C     C_3   0.237787 0.308773 0.400243 -0.850258
H31   H     H_    0.229018 0.323699 0.472924 0.260436
H32   H     H_    0.180551 0.372937 0.362145 0.250034
H33   H     H_    0.215803 0.241936 0.384668 0.264316
H34   H     H_    0.359780 0.368279 0.372799 0.257083
H35   H     H_    0.365888 0.267698 0.304854 0.193689
C46   C     C_3   0.636982 0.209727 0.630004 -0.351575
C47   C     C_3   0.593773 0.218757 0.724734 -0.834521
H36   H     H_    0.613541 0.144653 0.756927 0.250666
H37   H     H_    0.504942 0.256421 0.723182 0.277624
H38   H     H_    0.631813 0.262882 0.766875 0.239328
H39   H     H_    0.720356 0.155556 0.629471 0.148196
H40   H     H_    0.647678 0.279617 0.613023 0.256925
N6    N     N_2   0.627645 0.009697 0.627256 -0.296982
H41   H     H_    0.703295 0.010378 0.645865 0.223183
C48   C     C_3   0.572636 0.973512 0.694673 -0.752870
H42   H     H_    0.602164 0.985392 0.762838 0.215424
H43   H     H_    0.590311 0.892317 0.685878 0.251328
H44   H     H_    0.483760 0.012057 0.689911 0.240312

loop_
_geom_bond_atom_site_label_1
_geom_bond_atom_site_label_2
_ccdc_geom_bond_type
C46   H40   S    
C34   C37   S    
C41   H20   S    
C19   C20   A    
C4    C8    A    
C1    O2    A    
C47   H36   S    
O6    Zn2   S    
N4    H23   S    
C48   H43   S    
C34   O7    A    
C30   C35   A    
C18   C24   A    
C5    C6    A    
C23   O6    A    
C28   C29   A    
C16   N4    S    
C3    C7    A    
C30   C31   A    
C12   O4    A    
C28   H11   S    
C15   C16   A    
C5    C36   A    
C30   N5    S    
O2    Zn2   S    
C18   C19   A    
C44   H34   S    
N5    H27   S    
C16   C17   A    
C31   C44   S    
C9    C36   A    
O4    Zn2   S    
C11   H18   S    
C26   N1    A    
C25   H7    S    
C36   H12   S    
C26   H8    S    
C43   H29   S    
C21   C22   A    
C41   H21   S    
C47   H37   S    
C21   H5    S    
N4    C42   S    
C25   C29   A    
C48   H44   S    
C17   C24   S    
O3    Zn1   S    
C46   H39   S    
C34   O8    A    
C39   C40   A    
N3    C41   S    
C12   O3    A    
C13   N3    S    
C25   C26   A    
C43   H28   S    
O7    Zn1   S    
C31   N2    A    
C44   H35   S    
C2    C4    A    
C45   H32   S    
C39   H16   S    
C38   H14   S    
C20   C23   S    
C40   H15   S    
C46   C47   S    
C9    C37   A    
N6    C48   S    
C6    H10   S    
C10   C12   S    
N5    C43   S    
C41   H22   S    
C22   C24   A    
C8    C37   A    
C32   N2    A    
N6    H41   S    
C47   H38   S    
C19   H4    S    
C45   H33   S    
C42   H25   S    
C43   H30   S    
O1    Zn1   S    
C11   C17   A    
C22   H6    S    
C33   N6    S    
C15   H2    S    
C4    C5    A    
C1    O1    A    
C8    H13   S    
C42   H26   S    
C6    C7    A    
C48   H42   S    
C29   C35   S    
C9    H1    S    
C10   C38   A    
C32   C33   A    
C23   O5    A    
C2    C3    A    
N3    H19   S    
C32   C46   S    
C3    C10   A    
C27   N1    A    
C18   H3    S    
C11   C13   A    
C45   H31   S    
C38   C39   A    
N2    Zn1   S    
O5    Zn1   S    
C33   C35   A    
N1    Zn2   S    
C42   H24   S    
C2    C40   A    
C20   C21   A    
O8    Zn2   S    
C27   C28   A    
C14   C15   A    
C1    C14   S    
C44   C45   S    
C13   C14   A    
C7    H17   S    
C27   H9    S    
