data_mof_unit_pretest_677.cif
_audit_creation_date              2013-03-05T16:07:19-0500
_audit_creation_method            fapswitch 2.2
_symmetry_space_group_name_H-M    P1
_symmetry_Int_Tables_number       1
_space_group_crystal_system       triclinic
_cell_length_a                    6.957356
_cell_length_b                    13.587507
_cell_length_c                    20.245805
_cell_angle_alpha                 103.030155
_cell_angle_beta                  90.090044
_cell_angle_gamma                 90.437272
_cell_volume                      1864.55427073

loop_
_atom_site_label
_atom_site_type_symbol
_atom_site_description
_atom_site_fract_x
_atom_site_fract_y
_atom_site_fract_z
_atom_type_partial_charge
O1    O     O_R   0.506770 0.599700 0.449550 -0.590088
O2    O     O_R   0.179980 0.595740 0.587960 -0.562455
O3    O     O_R   0.004580 0.400300 0.550450 -0.599907
C1    C     C_R   0.348137 0.616890 0.615332 0.962186
O4    O     O_R   0.177380 0.611700 0.452380 -0.582256
O5    O     O_R   0.001970 0.416370 0.413900 -0.604982
C2    C     C_R   0.346782 0.638394 0.435792 0.945074
O6    O     O_R   0.509390 0.583630 0.586100 -0.603821
O7    O     O_3   0.337530 0.435890 0.487530 -0.289055
V1    V     V_3+5 0.064660 0.511890 0.502310 1.205686
O8    O     O_R   0.671950 0.404260 0.412040 -0.600338
C3    C     C_R   0.840399 0.383120 0.384645 0.926496
O9    O     O_R   0.674540 0.388300 0.547620 -0.599684
C4    C     C_R   0.843579 0.361621 0.564246 0.918942
V2    V     V_3+5 0.564030 0.488110 0.497690 1.175116
O10   O     O_3   0.841030 0.564110 0.512470 -0.237529
C5    C     C_R   0.958541 0.118343 0.612730 -0.103662
H1    H     H_    0.947368 0.167295 0.519266 0.110731
H2    H     H_    0.030350 0.000443 0.697573 0.176625
H3    H     H_    0.009277 0.043903 0.588050 0.147171
C6    C     C_R   0.856760 0.284404 0.603897 -0.083701
C7    C     C_R   0.795354 0.312354 0.929693 -0.170548
C8    C     C_R   0.763386 0.386431 0.893674 -0.091895
C9    C     C_R   0.787930 0.365286 0.823620 -0.184049
C10   C     C_R   0.848207 0.268645 0.787609 0.097422
C11   C     C_R   0.888077 0.194219 0.825362 0.108555
C12   C     C_R   0.869011 0.243137 0.715515 0.077500
C13   C     C_R   0.934471 0.145105 0.683317 0.170047
C14   C     C_R   0.977967 0.074784 0.721712 -0.155447
C15   C     C_R   0.954510 0.098639 0.791500 -0.259479
C16   C     C_R   0.828707 0.311601 0.674045 -0.245406
C17   C     C_R   0.921903 0.187980 0.573403 -0.191398
C18   C     C_R   0.857640 0.216512 0.896350 -0.164464
H4    H     H_    0.780996 0.387581 0.694590 0.099284
H5    H     H_    0.769784 0.329517 0.983864 0.102643
H6    H     H_    0.758239 0.426378 0.799370 0.107411
H7    H     H_    0.716070 0.460588 0.920130 0.114008
H8    H     H_    0.990017 0.041272 0.818801 0.140214
C19   C     C_R   0.708510 0.182318 0.227099 0.173209
C20   C     C_R   0.866053 0.183804 0.184278 -0.223373
C21   C     C_R   0.021735 0.247646 0.210422 -0.165215
H9    H     H_    0.144617 0.252586 0.178813 0.142070
C22   C     C_R   0.014687 0.311012 0.275850 -0.157821
H10   H     H_    0.132745 0.362751 0.292787 0.133014
C23   C     C_R   0.851285 0.312794 0.317087 -0.219318
C24   C     C_R   0.701490 0.245269 0.291958 0.164624
C25   C     C_3   0.494897 0.268294 0.284643 -0.477558
C26   C     C_3   0.502525 0.200868 0.214055 -0.477251
H11   H     H_    0.471543 0.349190 0.284716 0.187201
H12   H     H_    0.402588 0.237338 0.320033 0.196294
H13   H     H_    0.484846 0.242664 0.173131 0.191009
H14   H     H_    0.411362 0.132193 0.208612 0.192131
C27   C     C_R   0.490625 0.762052 0.701956 0.099304
C28   C     C_R   0.350549 0.686689 0.683087 -0.257200
C29   C     C_R   0.197714 0.686264 0.729023 -0.079536
H15   H     H_    0.081411 0.631992 0.715895 0.112435
C30   C     C_R   0.199273 0.751625 0.794081 -0.193142
H16   H     H_    0.084875 0.745631 0.829130 0.126146
C31   C     C_R   0.354549 0.818575 0.815186 -0.210051
C32   C     C_R   0.493978 0.825000 0.766419 0.164145
C33   C     C_3   0.708204 0.827074 0.769444 -0.610347
C34   C     C_3   0.704715 0.758924 0.698221 0.207882
H17   H     H_    0.763875 0.788833 0.808515 0.179971
H18   H     H_    0.767402 0.903907 0.772125 0.222547
H19   H     H_    0.764415 0.682300 0.694850 0.057931
C35   C     C_R   0.448601 0.884246 0.387730 -0.174937
H20   H     H_    0.442350 0.834846 0.481127 0.144322
H21   H     H_    0.506020 0.004907 0.303349 0.135316
H22   H     H_    0.493712 0.960095 0.412655 0.123810
C36   C     C_R   0.360310 0.715346 0.395985 -0.099889
C37   C     C_R   0.297072 0.685997 0.069933 -0.170645
C38   C     C_R   0.268302 0.611347 0.105893 -0.090457
C39   C     C_R   0.291253 0.633139 0.176097 -0.182580
C40   C     C_R   0.346004 0.731194 0.212376 0.093128
C41   C     C_R   0.380719 0.806580 0.174812 0.105077
C42   C     C_R   0.366675 0.757143 0.284530 0.090183
C43   C     C_R   0.424619 0.857040 0.317068 0.184050
C44   C     C_R   0.460585 0.928855 0.278940 -0.239249
C45   C     C_R   0.439405 0.904038 0.209012 -0.223651
C46   C     C_R   0.333237 0.687416 0.325753 -0.250434
C47   C     C_R   0.418412 0.813476 0.426850 -0.132234
C48   C     C_R   0.353374 0.783331 0.103595 -0.165659
H23   H     H_    0.290685 0.610188 0.305003 0.098659
H24   H     H_    0.274074 0.668020 0.015560 0.101500
H25   H     H_    0.264607 0.571436 0.200243 0.108758
H26   H     H_    0.225406 0.536062 0.079224 0.113641
H27   H     H_    0.470858 0.961915 0.181692 0.130160
O11   O     O_R   0.203450 0.916320 0.913910 -0.599055
O12   O     O_R   0.535520 0.888300 0.047620 -0.596251
O13   O     O_R   0.710860 0.083650 0.086100 -0.596234
C49   C     C_R   0.366200 0.861384 0.064115 0.923577
O14   O     O_R   0.532860 0.904250 0.912040 -0.595060
O15   O     O_R   0.708190 0.099710 0.949550 -0.587058
C50   C     C_R   0.364129 0.883211 0.884640 0.947724
O16   O     O_R   0.206120 0.900260 0.050460 -0.588629
O17   O     O_3   0.375280 0.064080 0.012470 -0.278515
V3    V     V_3+5 0.648180 0.988110 0.997690 1.157788
O18   O     O_R   0.038220 0.111740 0.952370 -0.597607
C51   C     C_R   0.869388 0.138237 0.935598 0.926575
O19   O     O_R   0.040880 0.095790 0.087940 -0.600278
C52   C     C_R   0.872499 0.117786 0.115068 0.935825
V4    V     V_3+5 0.148800 0.011950 0.002300 1.154190
O20   O     O_3   0.871820 0.935920 0.987530 -0.276189
N1    N     N_R   0.779339 0.809333 0.646732 0.248008
O21   O     O_R   0.702389 0.892264 0.637437 -0.430110
O22   O     O_R   0.923876 0.770792 0.609375 -0.391618

loop_
_geom_bond_atom_site_label_1
_geom_bond_atom_site_label_2
_geom_bond_distance
_ccdc_geom_bond_type
C29   H15   1.082131 S    
O17   V4    1.715554 S    
C21   H9    1.079430 S    
C1    O6    1.304749 A    
C2    C36   1.459578 S    
C45   H27   1.079883 S    
C25   H11   1.112024 S    
C43   C44   1.395435 A    
C7    H5    1.083869 S    
C6    C16   1.398899 A    
C9    H6    1.076479 S    
C40   C42   1.430135 A    
C4    C6    1.461065 S    
C13   C14   1.395491 A    
H20   C47   1.083708 S    
O5    C3    1.299242 A    
C30   C31   1.409058 A    
C35   H22   1.084125 S    
V2    O10   2.167587 S    
C5    H3    1.084168 S    
C15   H8    1.082086 S    
C39   C40   1.417664 A    
C33   H17   1.110480 S    
C36   C47   1.395330 A    
C20   C52   1.484622 S    
C28   C29   1.414582 A    
O8    V2    1.998753 S    
C26   H13   1.112211 S    
C8    C9    1.393213 A    
O1    V2    2.020381 S    
C31   C50   1.481540 S    
O12   C49   1.297209 A    
O7    V1    2.156945 S    
O15   C51   1.292418 A    
O13   V3    2.005081 S    
O16   V4    2.021897 S    
C37   C48   1.397059 A    
C31   C32   1.401434 A    
O9    C4    1.299275 A    
C21   C22   1.408878 A    
V4    O20   2.167637 S    
C46   H23   1.077640 S    
O19   V4    1.998552 S    
N1    O21   1.302411 A    
C27   C32   1.389842 A    
O14   V3    2.009900 S    
C25   H12   1.111743 S    
C34   N1    1.464099 S    
H21   C44   1.084534 S    
C6    C17   1.395805 A    
O11   C50   1.301075 A    
C40   C41   1.426192 A    
C12   C16   1.415763 A    
C9    C10   1.417509 A    
C19   C20   1.401403 A    
O4    C2    1.297327 A    
C44   C45   1.386742 A    
C3    C23   1.483802 S    
C10   C11   1.426866 A    
O18   V4    2.020830 S    
C36   C46   1.398594 A    
C48   C49   1.467188 S    
O12   V3    2.019871 S    
C32   C33   1.491403 S    
C18   C51   1.466774 S    
C33   H18   1.109170 S    
O2    C1    1.295932 A    
C22   H10   1.080763 S    
O13   C52   1.300418 A    
C14   C15   1.386736 A    
C8    H7    1.082955 S    
C27   C34   1.491980 S    
C11   C18   1.416969 A    
O11   V4    1.999126 S    
C25   C26   1.514952 S    
O17   V3    2.156943 S    
O14   C50   1.299560 A    
C16   H4    1.077509 S    
C42   C43   1.423545 A    
C22   C23   1.408663 A    
C39   H25   1.076550 S    
V3    O20   1.708278 S    
O3    C4    1.291167 A    
C19   C24   1.397378 A    
C20   C21   1.408057 A    
C11   C15   1.406740 A    
O6    V2    1.998744 S    
O9    V2    2.020854 S    
H1    C17   1.083596 S    
O2    V1    2.009850 S    
O15   V3    2.020304 S    
C37   H24   1.083837 S    
C7    C18   1.397313 A    
C24   C25   1.487563 S    
C34   H19   1.111653 S    
C1    C28   1.481384 S    
O1    C2    1.291105 A    
C5    C13   1.403544 A    
C42   C46   1.414937 A    
C38   C39   1.393617 A    
O5    V1    2.004977 S    
C38   H26   1.082945 S    
O8    C3    1.303440 A    
C41   C48   1.416956 A    
C27   C28   1.396953 A    
N1    O22   1.299734 A    
C10   C12   1.429983 A    
C29   C30   1.412818 A    
O7    V2    1.716139 S    
O4    V1    2.020031 S    
O3    V1    2.020288 S    
V1    O10   1.708374 S    
C35   C47   1.391740 A    
C30   H16   1.081878 S    
O19   C52   1.302574 A    
C35   C43   1.403905 A    
C33   C34   1.527986 S    
C49   O16   1.292174 A    
C23   C24   1.400007 A    
C26   H14   1.108837 S    
C37   C38   1.388976 A    
O18   C51   1.298073 A    
C12   C13   1.423105 A    
C5    C17   1.391739 A    
C7    C8    1.388614 A    
C41   C45   1.406086 A    
C19   C26   1.490447 S    
H2    C14   1.084225 S    
