data_mof_unit_pretest_1798.cif
_audit_creation_date              2012-12-10T17:00:05-0500
_audit_creation_method            fapswitch 2.2
_symmetry_space_group_name_H-M    P1
_symmetry_Int_Tables_number       1
_space_group_crystal_system       triclinic
_cell_length_a                    13.11194
_cell_length_b                    13.14287
_cell_length_c                    16.062081
_cell_angle_alpha                 80.551733
_cell_angle_beta                  100.233797
_cell_angle_gamma                 90.593194
_cell_volume                      2686.46257771

loop_
_atom_site_label
_atom_site_type_symbol
_atom_type_description
_atom_site_fract_x
_atom_site_fract_y
_atom_site_fract_z
_atom_type_partial_charge
C1    C     C_R   0.462087 0.777159 0.469409 0.505230
C2    C     C_2   0.064487 0.459439 0.541171 0.147142
C3    C     C_2   0.893081 0.534276 0.542412 0.322538
C4    C     C_R   0.537292 0.223152 0.531471 0.565466
C5    C     C_2   0.950694 0.452832 0.533325 0.160861
C6    C     C_R   0.778229 0.530567 0.526414 0.535393
C7    C     C_R   0.222459 0.468566 0.476553 0.511230
C8    C     C_R   0.515792 0.487725 0.726866 0.502284
C9    C     C_R   0.484260 0.512249 0.273004 0.510257
C10   C     C_1   0.523193 0.482134 0.817541 -0.008548
C11   C     C_2   0.538061 0.471583 0.986299 0.325684
C12   C     C_1   0.472794 0.520201 0.106499 0.014590
C13   C     C_2   0.467373 0.523765 0.015340 0.118451
C14   C     C_3   0.685156 0.363828 0.008387 -0.113425
C15   C     C_3   0.301667 0.063231 0.529142 -0.106082
C16   C     C_3   0.946199 0.632560 0.645952 -0.112329
C17   C     C_1   0.529844 0.477333 0.893850 -0.021757
C18   C     C_1   0.477841 0.516783 0.182510 0.021905
C19   C     C_2   0.552417 0.111372 0.542023 0.130394
C20   C     C_2   0.471751 0.051999 0.517513 0.273858
C21   C     C_2   0.440608 0.887757 0.462558 -0.117134
C22   C     C_2   0.489639 0.940231 0.522172 -0.138926
C23   C     C_2   0.109159 0.462864 0.470763 0.107010
H1    H     H_    0.547984 0.901534 0.574110 0.165540
H2    H     H_    0.284884 0.980341 0.528045 0.116740
H3    H     H_    0.228474 0.107603 0.502008 0.146018
H4    H     H_    0.325748 0.076982 0.596401 0.127561
H5    H     H_    0.705450 0.123842 0.593363 0.233729
H6    H     H_    0.681471 0.046386 0.519230 0.236763
H7    H     H_    0.919875 0.337057 0.463698 0.255957
H8    H     H_    0.938350 0.299426 0.570983 0.214774
H9    H     H_    0.170305 0.396404 0.644986 0.248317
H10   H     H_    0.171213 0.527777 0.621584 0.240476
H11   H     H_    0.974171 0.559527 0.689580 0.126186
H12   H     H_    0.383269 0.925938 0.409620 0.149121
H13   H     H_    0.869849 0.656461 0.657884 0.149442
H14   H     H_    0.002087 0.693225 0.662357 0.144266
H15   H     H_    0.391504 0.659610 0.968134 0.232581
H16   H     H_    0.315140 0.555440 0.971337 0.231819
H17   H     H_    0.067618 0.409055 0.359076 0.223737
H18   H     H_    0.060235 0.538751 0.350155 0.255520
H19   H     H_    0.726972 0.420231 0.967669 0.117580
H20   H     H_    0.644212 0.306762 0.970934 0.120417
H21   H     H_    0.743989 0.320809 0.060027 0.152327
N1    N     N_3   0.385876 0.583509 0.956742 -0.656521
N2    N     N_3   0.045185 0.469237 0.387555 -0.642644
N3    N     N_3   0.655227 0.067491 0.571905 -0.676725
N4    N     N_3   0.903550 0.356015 0.520682 -0.625834
N5    N     N_3   0.123983 0.463157 0.624880 -0.641424
O1    O     O_3   0.500000 0.500000 0.500000 -0.442313
O2    O     O_R   0.564890 0.556920 0.685230 -0.542234
O3    O     O_R   0.419250 0.562810 0.301190 -0.540417
O4    O     O_R   0.461010 0.422870 0.688230 -0.542594
O5    O     O_R   0.554850 0.457400 0.325340 -0.519340
O6    O     O_3   0.615793 0.414578 0.046484 -0.566651
O7    O     O_3   0.376569 0.098057 0.478492 -0.567859
O8    O     O_3   0.941469 0.625091 0.558721 -0.573859
O9    O     O_R   0.732880 0.470090 0.478000 -0.519557
O10   O     O_R   0.260330 0.535210 0.424090 -0.536349
O11   O     O_R   0.533020 0.732860 0.528350 -0.535979
O12   O     O_R   0.473780 0.261850 0.569570 -0.527426
O13   O     O_R   0.406490 0.723840 0.419860 -0.533186
O14   O     O_R   0.586720 0.281460 0.482230 -0.537352
O15   O     O_R   0.723810 0.584530 0.562340 -0.550694
O16   O     O_R   0.282980 0.410180 0.535580 -0.551873
Zn1   Zn    Zn3+2 0.592010 0.428480 0.447310 0.976854
Zn2   Zn    Zn3+2 0.579060 0.591980 0.567800 0.937199
Zn3   Zn    Zn3+2 0.430650 0.400450 0.572090 0.940352
Zn4   Zn    Zn3+2 0.398290 0.579090 0.412800 0.953459

loop_
_geom_bond_atom_site_label_1
_geom_bond_atom_site_label_2
_ccdc_geom_bond_type
C8    O4    A    
H17   N2    S    
H18   N2    S    
H5    N3    S    
C1    C21   S    
O5    Zn1   S    
C2    N5    S    
C7    O16   A    
O1    Zn1   S    
O1    Zn2   S    
C6    O9    A    
C14   H21   S    
C15   H4    S    
C19   C20   D    
O12   Zn3   S    
C14   H19   S    
C16   H14   S    
H16   N1    S    
O16   Zn3   S    
C1    O13   A    
C3    C6    S    
C14   O6    S    
O14   Zn1   S    
C23   N2    S    
O2    Zn2   S    
C21   C22   D    
C16   H13   S    
C13   N1    S    
C11   C13   D    
C8    O2    A    
C9    O3    A    
O10   Zn4   S    
C4    O14   A    
C21   H12   S    
C3    O8    S    
H7    N4    S    
C9    O5    A    
O1    Zn4   S    
H6    N3    S    
C22   H1    S    
C16   O8    S    
H8    N4    S    
C1    O11   A    
C5    N4    S    
C7    C23   S    
H9    N5    S    
C15   H2    S    
C2    C5    S    
C20   C22   S    
C10   C17   T    
H10   N5    S    
O15   Zn2   S    
C3    C5    D    
C9    C18   S    
C11   O6    S    
C12   C13   S    
O11   Zn2   S    
C8    C10   S    
C19   N3    S    
C12   C18   T    
C2    C23   D    
O4    Zn3   S    
C11   C17   S    
C15   H3    S    
C20   O7    S    
O3    Zn4   S    
C16   H11   S    
C4    C19   S    
O1    Zn3   S    
C4    O12   A    
O9    Zn1   S    
C7    O10   A    
O13   Zn4   S    
C6    O15   A    
C14   H20   S    
H15   N1    S    
C15   O7    S    
