data_mof_unit_pretest_989.cif
_audit_creation_date              2012-10-26T19:50:23-0400
_audit_creation_method            fapswitch 2.2
_symmetry_space_group_name_H-M    P1
_symmetry_Int_Tables_number       1
_space_group_crystal_system       triclinic
_cell_length_a                    13.95679
_cell_length_b                    15.057514
_cell_length_c                    15.77024
_cell_angle_alpha                 92.770967
_cell_angle_beta                  69.285895
_cell_angle_gamma                 88.598808
_cell_volume                      3093.26021797

loop_
_atom_site_label
_atom_site_type_symbol
_atom_type_description
_atom_site_fract_x
_atom_site_fract_y
_atom_site_fract_z
_atom_type_partial_charge
C1    C     C_R   0.499264 0.669660 0.500024 0.553123
C2    C     C_R   0.587198 0.183721 0.502965 -0.107934
C3    C     C_R   0.500039 0.765372 0.496796 0.000762
C4    C     C_R   0.502755 0.232155 0.497583 -0.030935
C5    C     C_R   0.561866 0.803018 0.417661 -0.095899
C6    C     C_R   0.419522 0.186898 0.489023 -0.103950
C7    C     C_R   0.565631 0.895396 0.413919 0.300361
C8    C     C_R   0.420008 0.094203 0.485368 0.285366
C9    C     C_R   0.507477 0.949434 0.491748 0.040576
C10   C     C_R   0.505156 0.046338 0.491478 0.045463
C11   C     C_R   0.927715 0.466149 0.425300 0.252956
C12   C     C_R   0.500798 0.329619 0.500006 0.570564
C13   C     C_R   0.096442 0.577814 0.513610 0.258041
C14   C     C_R   0.824133 0.458388 0.427561 0.344921
C15   C     C_R   0.193036 0.576652 0.525712 0.360486
C16   C     C_R   0.437402 0.501458 0.672822 0.552754
C17   C     C_R   0.562013 0.504589 0.327722 0.556103
C18   C     C_R   0.759842 0.535618 0.573689 0.006823
C19   C     C_R   0.217127 0.422005 0.485085 -0.004852
C20   C     C_R   0.858380 0.529763 0.579211 -0.155088
C21   C     C_R   0.112438 0.418356 0.495713 -0.157831
C22   C     C_R   0.943626 0.494760 0.505329 0.018042
C23   C     C_R   0.372078 0.541294 0.101344 -0.096383
C24   C     C_R   0.050616 0.496834 0.508663 -0.001117
C25   C     C_R   0.399758 0.509779 0.772805 0.004585
C26   C     C_R   0.596667 0.520851 0.230165 0.001459
C27   C     C_R   0.262006 0.525949 0.918987 -0.110229
C28   C     C_R   0.724251 0.566762 0.091767 -0.089312
C29   C     C_R   0.294878 0.514852 0.824578 -0.135923
C30   C     C_R   0.693796 0.552274 0.184064 -0.104547
C31   C     C_R   0.471109 0.516600 0.816573 -0.126111
C32   C     C_R   0.526636 0.513399 0.184996 -0.119937
C33   C     C_R   0.439956 0.531288 0.911281 -0.003967
C34   C     C_R   0.615776 0.559738 0.907935 -0.105274
C35   C     C_R   0.552251 0.536264 0.094489 -0.003563
C36   C     C_R   0.333539 0.533357 0.963138 0.056449
C37   C     C_R   0.655035 0.556769 0.045615 0.062937
C38   C     C_R   0.512132 0.541857 0.955657 -0.021839
C39   C     C_R   0.478572 0.537771 0.051247 -0.019698
C40   C     C_3   0.170543 0.645758 0.126916 0.006426
C41   C     C_3   0.054687 0.659531 0.170646 -0.292981
C42   C     C_3   0.842104 0.517407 0.851235 -0.025850
C43   C     C_3   0.951375 0.543227 0.800127 -0.334100
C44   C     C_R   0.300331 0.543775 0.058198 0.269533
C45   C     C_R   0.686480 0.567961 0.952021 0.272044
C46   C     C_R   0.447961 0.910879 0.571435 -0.108359
C47   C     C_R   0.588008 0.091303 0.500436 -0.115417
C48   C     C_R   0.444021 0.819049 0.573892 -0.077068
Cu1   Cu    Cu3+1 0.403570 0.500010 0.500000 1.047572
Cu2   Cu    Cu3+1 0.596430 0.499990 0.500000 1.036031
H1    H     H_    0.697546 0.566845 0.630471 0.141141
H2    H     H_    0.801569 0.587215 0.057105 0.168619
H3    H     H_    0.342370 0.548408 0.174597 0.129498
H4    H     H_    0.642989 0.573156 0.836911 0.114612
H5    H     H_    0.404011 0.952223 0.631492 0.152122
H6    H     H_    0.653124 0.054577 0.505856 0.162452
H7    H     H_    0.398314 0.789919 0.635971 0.146425
H8    H     H_    0.652209 0.217133 0.509702 0.175748
H9    H     H_    0.606265 0.760072 0.359032 0.144113
H10   H     H_    0.353947 0.223732 0.484941 0.157210
H11   H     H_    0.195460 0.681438 0.062782 0.120058
H12   H     H_    0.263056 0.360675 0.468372 0.159729
H13   H     H_    0.206029 0.675726 0.174057 0.169767
H14   H     H_    0.027167 0.630813 0.238047 0.245843
H15   H     H_    0.033302 0.731817 0.180032 0.122803
H16   H     H_    0.016926 0.627179 0.126688 0.166661
H17   H     H_    0.808614 0.493238 0.800348 0.118848
H18   H     H_    0.844995 0.462378 0.895194 0.144864
H19   H     H_    0.988520 0.564931 0.848920 0.170357
H20   H     H_    0.996438 0.485334 0.756822 0.099922
H21   H     H_    0.950899 0.598483 0.756134 0.213356
H22   H     H_    0.198137 0.479290 0.290413 0.358215
H23   H     H_    0.868737 0.555654 0.640431 0.136447
H24   H     H_    0.943894 0.717858 0.418954 0.366517
H25   H     H_    0.711147 0.306685 0.290881 0.360985
H26   H     H_    0.254823 0.692970 0.711088 0.343985
H27   H     H_    0.626264 0.054077 0.237179 0.375316
H28   H     H_    0.292247 0.915862 0.409512 0.398386
H29   H     H_    0.081287 0.354463 0.488607 0.174817
H30   H     H_    0.452401 0.488019 0.220951 0.134349
H31   H     H_    0.551343 0.507846 0.775670 0.116026
H32   H     H_    0.745668 0.567144 0.219373 0.179171
H33   H     H_    0.238270 0.509988 0.792276 0.157161
H34   H     H_    0.180369 0.528455 0.957302 0.165572
N1    N     N_R   0.741310 0.499980 0.500000 -0.265728
N2    N     N_R   0.258690 0.500020 0.500000 -0.266650
O1    O     O_R   0.418570 0.628550 0.499990 -0.409526
O2    O     O_3   0.785196 0.592292 0.904166 -0.547578
O3    O     O_2   0.079704 0.350672 0.321253 -0.254031
O4    O     O_2   0.018139 0.456564 0.237788 -0.165923
O5    O     O_3   0.132966 0.514269 0.321326 -0.506181
O6    O     O_2   0.956145 0.713732 0.584109 -0.249378
O7    O     O_2   0.114824 0.748561 0.462374 -0.192191
O8    O     O_3   0.981191 0.661037 0.418913 -0.524495
O9    O     O_2   0.831075 0.441685 0.254744 -0.288113
O10   O     O_2   0.891960 0.313255 0.312181 -0.201143
O11   O     O_3   0.702133 0.336711 0.350681 -0.502420
O12   O     O_R   0.581430 0.371450 0.500010 -0.438314
O13   O     O_2   0.261078 0.741867 0.535784 -0.218799
O14   O     O_2   0.104700 0.705869 0.656855 -0.256824
O15   O     O_3   0.272975 0.644153 0.662981 -0.540635
O16   O     O_2   0.735982 0.977202 0.323747 -0.274405
O17   O     O_2   0.673556 0.871082 0.234612 -0.260078
O18   O     O_3   0.575204 0.024333 0.287094 -0.467672
O19   O     O_2   0.247761 0.010115 0.564493 -0.258587
O20   O     O_2   0.250767 0.103407 0.440659 -0.246625
O21   O     O_3   0.353592 0.951613 0.399010 -0.456792
O22   O     O_R   0.581440 0.628540 0.499990 -0.517241
O23   O     O_R   0.418560 0.371460 0.500010 -0.535046
O24   O     O_R   0.372890 0.500010 0.629830 -0.445566
O25   O     O_R   0.627110 0.499990 0.370170 -0.434264
O26   O     O_R   0.535760 0.500000 0.629840 -0.536938
O27   O     O_R   0.464240 0.500000 0.370160 -0.513417
O28   O     O_3   0.197008 0.553711 0.109935 -0.514061
S1    S     S_3+6 0.039738 0.444702 0.323237 0.085028
S2    S     S_3+6 0.037113 0.679117 0.496343 0.083958
S3    S     S_3+6 0.811348 0.387559 0.336041 0.089596
S4    S     S_3+6 0.208474 0.669420 0.595159 0.074641
S5    S     S_3+6 0.641827 0.941171 0.311706 0.046256
S6    S     S_3+6 0.313402 0.040429 0.473542 0.062834

loop_
_geom_bond_atom_site_label_1
_geom_bond_atom_site_label_2
_ccdc_geom_bond_type
C25   C31   A    
Cu1   O27   S    
O3    S1    D    
C26   C32   A    
C16   C25   S    
C27   C29   A    
Cu1   O1    S    
C35   C39   A    
C19   N2    A    
C17   O27   A    
C48   H7    S    
O9    S3    D    
C8    S6    S    
C40   H13   S    
O15   S4    S    
C27   H34   S    
C35   C37   A    
C29   H33   S    
C38   C39   A    
C11   C14   A    
C19   H12   S    
C3    C48   A    
H25   O11   S    
C33   C36   A    
C1    O1    A    
H24   O8    S    
Cu2   N1    S    
C40   O28   S    
C46   H5    S    
C31   C33   A    
O19   S6    D    
C4    C12   S    
C11   S1    S    
C9    C10   S    
C12   O12   A    
O18   S5    S    
C44   O28   S    
C9    C46   A    
C43   H19   S    
Cu2   O22   S    
C17   O25   A    
C12   O23   A    
C18   H1    S    
C23   H3    S    
C25   C29   A    
C46   C48   A    
Cu2   O12   S    
C18   N1    A    
C5    H9    S    
C16   O24   A    
C32   C35   A    
C7    S5    S    
O10   S3    D    
C45   O2    S    
C4    C6    A    
C5    C7    A    
H22   O5    S    
O8    S2    S    
C41   H15   S    
C23   C44   A    
C13   C24   A    
H28   O21   S    
C1    C3    S    
O7    S2    D    
C30   H32   S    
C2    C4    A    
C6    H10   S    
C32   H30   S    
C14   S3    S    
C21   H29   S    
Cu2   O26   S    
C34   C45   A    
O4    S1    D    
O6    S2    D    
C15   N2    A    
C40   C41   S    
C20   C22   A    
C34   H4    S    
C43   H20   S    
C13   C15   A    
C42   H17   S    
C2    C47   A    
C22   C24   S    
C36   C44   A    
O14   S4    D    
C42   C43   S    
C17   C26   S    
C37   C45   A    
O21   S6    S    
C16   O26   A    
Cu1   O23   S    
H26   O15   S    
C7    C9    A    
C43   H21   S    
O20   S6    D    
C34   C38   A    
Cu1   N2    S    
O17   S5    D    
C14   N1    A    
C3    C5    A    
C6    C8    A    
C2    H8    S    
C26   C30   A    
C41   H16   S    
C27   C36   A    
C11   C22   A    
C33   C38   A    
C31   H31   S    
C15   S4    S    
C28   C30   A    
O13   S4    D    
C28   H2    S    
C28   C37   A    
C23   C39   A    
Cu2   O25   S    
O5    S1    S    
C20   H23   S    
C18   C20   A    
C42   H18   S    
O11   S3    S    
C13   S2    S    
C40   H11   S    
C1    O22   A    
C42   O2    S    
C8    C10   A    
Cu1   Cu2   S    
C21   C24   A    
C10   C47   A    
Cu1   O24   S    
H27   O18   S    
C41   H14   S    
O16   S5    D    
C47   H6    S    
C19   C21   A    
