data_mof_unit_pretest_260.cif
_audit_creation_date              2012-12-10T20:34:57-0500
_audit_creation_method            fapswitch 2.2
_symmetry_space_group_name_H-M    P1
_symmetry_Int_Tables_number       1
_space_group_crystal_system       triclinic
_cell_length_a                    10.77113
_cell_length_b                    10.768413
_cell_length_c                    9.953308
_cell_angle_alpha                 87.931987
_cell_angle_beta                  89.366767
_cell_angle_gamma                 92.695056
_cell_volume                      1152.34208172

loop_
_atom_site_label
_atom_site_type_symbol
_atom_type_description
_atom_site_fract_x
_atom_site_fract_y
_atom_site_fract_z
_atom_type_partial_charge
C1    C     C_R   0.506122 0.260203 0.501772 0.943082
C2    C     C_3   0.876763 0.506631 0.498502 -0.231985
C3    C     C_3   0.928234 0.621964 0.577208 -0.032920
C4    C     C_3   0.928880 0.517350 0.352423 -0.594987
C5    C     C_R   0.494527 0.056426 0.618755 0.005251
C6    C     C_R   0.529363 0.129255 0.505345 -0.177534
C7    C     C_R   0.589206 0.073706 0.396676 0.328120
C8    C     C_R   0.589201 0.941799 0.394935 0.312287
C9    C     C_R   0.525399 0.872186 0.498542 -0.229931
C10   C     C_R   0.493082 0.929840 0.615191 0.102329
C11   C     C_3   0.376917 0.911298 0.697703 -0.036944
C12   C     C_R   0.257559 0.503922 0.500679 0.882420
C13   C     C_3   0.377638 0.050982 0.701298 -0.467514
C14   C     C_R   0.415642 0.426547 0.075618 0.115150
C15   C     C_R   0.578733 0.578083 0.067341 0.441393
C16   C     C_R   0.579276 0.577788 0.925446 0.416936
C17   C     C_R   0.414676 0.428229 0.933132 0.030453
C18   C     C_3   0.402966 0.290721 0.932174 0.194483
C19   C     C_3   0.408411 0.287687 0.084571 -0.109056
C20   C     C_R   0.506098 0.739796 0.498115 0.915261
C21   C     C_R   0.741341 0.501523 0.499051 0.993558
C22   C     C_3   0.060777 0.390446 0.589297 0.674724
C23   C     C_3   0.919792 0.380704 0.562019 0.267214
C24   C     C_3   0.074282 0.635927 0.562417 0.275449
C25   C     C_3   0.069400 0.495572 0.352121 0.757160
C26   C     C_3   0.119521 0.507803 0.502611 -0.142812
H1    H     H_    0.910211 0.609714 0.305669 0.229445
H2    H     H_    0.297717 0.871729 0.640789 0.165446
H3    H     H_    0.297942 0.091004 0.647829 0.193658
H4    H     H_    0.395149 0.081595 0.803664 0.249593
H5    H     H_    0.484040 0.249584 0.883277 0.111913
H6    H     H_    0.495655 0.249422 0.122640 0.177066
H7    H     H_    0.902227 0.308676 0.485848 0.192038
H8    H     H_    0.904012 0.600439 0.684678 0.203037
H9    H     H_    0.880557 0.447999 0.288372 0.212814
N1    N     N_R   0.499150 0.499140 0.142800 -0.218651
N2    N     N_R   0.499150 0.499180 0.857150 -0.232583
O1    O     O_R   0.500020 0.316790 0.614690 -0.632429
O2    O     O_R   0.500000 0.316760 0.385350 -0.586305
O3    O     O_R   0.314800 0.500000 0.614670 -0.675948
O4    O     O_R   0.314790 0.499960 0.385330 -0.530267
O5    O     O_R   0.500000 0.683240 0.614650 -0.661913
O6    O     O_R   0.499980 0.683210 0.385310 -0.587018
O7    O     O_R   0.685210 0.500040 0.614670 -0.635933
O8    O     O_R   0.685200 0.500000 0.385330 -0.641063
Zn1   Zn    Zn3+2 0.500010 0.500020 0.653130 0.919291
Zn2   Zn    Zn3+2 0.499990 0.499980 0.346870 1.003396
O9    O     O_3   0.074732 0.401557 0.728895 -0.765054
H10   H     H_    0.163367 0.406417 0.750674 0.366868
C27   C     C_3   0.118915 0.749624 0.468628 -0.741802
H11   H     H_    0.106415 0.839713 0.516794 0.220691
H12   H     H_    0.219397 0.746140 0.443760 0.227867
H13   H     H_    0.066596 0.755913 0.373970 0.265832
C28   C     C_3   0.861107 0.744071 0.545406 -0.822129
H14   H     H_    0.762053 0.734578 0.575955 0.229713
H15   H     H_    0.902605 0.821312 0.603500 0.260167
H16   H     H_    0.864482 0.770953 0.436936 0.253586
O10   O     O_3   0.642066 0.148987 0.294046 -0.764983
H17   H     H_    0.643851 0.101947 0.210522 0.338034
O11   O     O_3   0.648898 0.880112 0.295838 -0.746888
H18   H     H_    0.723699 0.931001 0.265781 0.349443
C29   C     C_3   0.396019 0.848250 0.836371 -0.758599
H19   H     H_    0.482791 0.884653 0.883562 0.268990
H20   H     H_    0.315897 0.865421 0.903213 0.239455
H21   H     H_    0.400944 0.746489 0.827883 0.251267
O12   O     O_3   0.663672 0.658168 0.125525 -0.690201
H22   H     H_    0.651462 0.651371 0.223052 0.399586
O13   O     O_3   0.110653 0.277778 0.550950 -0.725619
H23   H     H_    0.199129 0.278424 0.576726 0.304808
O14   O     O_3   0.665081 0.658182 0.860744 -0.722819
H24   H     H_    0.654911 0.651815 0.764088 0.377734
O15   O     O_3   0.286889 0.251682 0.883253 -0.736726
H25   H     H_    0.294364 0.264203 0.784592 0.338916
C30   C     C_3   0.292741 0.231259 0.158535 -0.583476
H26   H     H_    0.296494 0.252599 0.266572 0.253314
H27   H     H_    0.206911 0.267659 0.115095 0.279044
H28   H     H_    0.289352 0.128652 0.149959 0.216486
O16   O     O_3   0.850728 0.336429 0.676981 -0.696651
H29   H     H_    0.853585 0.401637 0.744797 0.377141
C31   C     C_3   0.126579 0.668115 0.703546 -0.866742
H30   H     H_    0.092749 0.604974 0.787092 0.270207
H31   H     H_    0.228864 0.674041 0.703965 0.263431
H32   H     H_    0.095884 0.760612 0.732734 0.242003
O17   O     O_3   0.131085 0.582319 0.261361 -0.758205
H33   H     H_    0.095969 0.570820 0.170557 0.334919
O18   O     O_3   0.089547 0.374781 0.308781 -0.763911
H34   H     H_    0.054374 0.367115 0.217546 0.327126

loop_
_geom_bond_atom_site_label_1
_geom_bond_atom_site_label_2
_ccdc_geom_bond_type
C22   O9    S    
C11   C29   S    
C20   O6    A    
C4    C25   S    
C7    C8    A    
O3    Zn1   S    
C12   O4    A    
C30   H27   S    
C13   H3    S    
C24   C26   S    
C14   N1    A    
C5    C6    A    
C3    C28   S    
C15   C16   A    
N1    Zn2   S    
C18   C19   S    
O5    Zn1   S    
C29   H20   S    
O13   H23   S    
C24   C31   S    
C8    C9    A    
C23   H7    S    
C30   H28   S    
C25   O17   S    
C27   H12   S    
O14   H24   S    
C9    C10   A    
C7    O10   S    
C5    C13   S    
C16   N2    A    
O12   H22   S    
C4    H9    S    
C18   O15   S    
C14   C17   A    
C3    C24   S    
C31   H32   S    
C19   H6    S    
O7    Zn1   S    
C27   H11   S    
C21   O8    A    
O8    Zn2   S    
C24   C27   S    
C28   H15   S    
C27   H13   S    
C30   H26   S    
C1    C6    S    
C13   H4    S    
C16   O14   S    
O17   H33   S    
C31   H31   S    
O16   H29   S    
O15   H25   S    
C3    H8    S    
O10   H17   S    
C15   O12   S    
C12   C26   S    
O11   H18   S    
C12   O3    A    
C2    C4    S    
C29   H19   S    
C21   O7    A    
C9    C20   S    
C2    C21   S    
C17   C18   S    
O4    Zn2   S    
C17   N2    A    
C22   O13   S    
C1    O1    A    
O9    H10   S    
C15   N1    A    
C4    H1    S    
O2    Zn2   S    
C28   H14   S    
C29   H21   S    
O18   H34   S    
C14   C19   S    
C19   C30   S    
C31   H30   S    
C20   O5    A    
C6    C7    A    
C2    C3    S    
C25   C26   S    
C5    C10   A    
C8    O11   S    
C11   C13   S    
C11   H2    S    
C25   O18   S    
C23   O16   S    
O1    Zn1   S    
C10   C11   S    
C1    O2    A    
C22   C26   S    
C2    C23   S    
C22   C23   S    
C18   H5    S    
N2    Zn1   S    
O6    Zn2   S    
C28   H16   S    
