data_mof_unit_pretest_1311.cif
_audit_creation_date              2012-12-11T15:22:22-0500
_audit_creation_method            fapswitch 2.2
_symmetry_space_group_name_H-M    P1
_symmetry_Int_Tables_number       1
_space_group_crystal_system       triclinic
_cell_length_a                    22.452179
_cell_length_b                    12.967168
_cell_length_c                    26.91321
_cell_angle_alpha                 89.999018
_cell_angle_beta                  90.700043
_cell_angle_gamma                 89.718979
_cell_volume                      7834.86453282

loop_
_atom_site_label
_atom_site_type_symbol
_atom_type_description
_atom_site_fract_x
_atom_site_fract_y
_atom_site_fract_z
_atom_type_partial_charge
C1    C     C_R   0.720739 0.345278 0.178329 0.558812
C2    C     C_R   0.279055 0.345873 0.821397 0.546818
C3    C     C_R   0.205032 0.806201 0.172959 0.566523
C4    C     C_R   0.779203 0.845305 0.821606 0.546724
C5    C     C_R   0.480742 0.162903 0.869948 0.002546
C6    C     C_R   0.521217 0.162482 0.129009 0.003167
C7    C     C_R   0.981163 0.662385 0.869794 0.002984
C8    C     C_R   0.021730 0.663067 0.128821 0.004685
C9    C     C_R   0.519594 0.256374 0.102845 -0.148015
C10   C     C_R   0.481395 0.256621 0.896280 -0.148812
C11   C     C_R   0.021787 0.756648 0.102369 -0.153133
C12   C     C_R   0.983380 0.756372 0.895839 -0.151815
C13   C     C_R   0.508597 0.257675 0.051499 0.008465
C14   C     C_R   0.493523 0.257914 0.947426 0.007534
C15   C     C_R   0.011053 0.757871 0.051013 0.007559
C16   C     C_R   0.995878 0.757704 0.946953 0.002171
C17   C     C_R   0.504586 0.163530 0.025441 0.050983
C18   C     C_R   0.500315 0.163738 0.973113 0.050466
C19   C     C_R   0.005406 0.663690 0.025228 0.050426
C20   C     C_R   0.001100 0.663543 0.972906 0.049981
C21   C     C_R   0.504603 0.351125 0.025340 -0.129824
C22   C     C_R   0.495469 0.351199 0.973838 -0.130233
C23   C     C_R   0.008795 0.851155 0.024604 -0.115535
C24   C     C_R   0.999644 0.851133 0.973104 -0.119750
C25   C     C_R   0.738505 0.958803 0.129451 0.020110
C26   C     C_R   0.257397 0.943662 0.866433 0.019341
C27   C     C_R   0.237141 0.462925 0.128433 0.020043
C28   C     C_R   0.761413 0.457639 0.870280 0.020217
C29   C     C_R   0.793783 0.963252 0.105870 -0.136932
C30   C     C_R   0.199198 0.921046 0.881100 -0.133094
C31   C     C_R   0.292579 0.463189 0.105049 -0.143447
C32   C     C_R   0.705929 0.461666 0.893589 -0.136889
C33   C     C_R   0.797245 0.946340 0.054877 -0.067937
C34   C     C_R   0.188886 0.881285 0.928430 -0.059281
C35   C     C_R   0.295726 0.448198 0.053873 -0.074959
C36   C     C_R   0.702202 0.444118 0.944512 -0.067119
C37   C     C_R   0.745304 0.927102 0.026837 0.074671
C38   C     C_R   0.236430 0.867500 0.962377 0.072559
C39   C     C_R   0.243353 0.435445 0.025436 0.069625
C40   C     C_R   0.754067 0.424665 0.972754 0.074761
C41   C     C_R   0.690750 0.916352 0.050931 -0.127129
C42   C     C_R   0.294902 0.883772 0.946365 -0.126539
C43   C     C_R   0.188319 0.430440 0.049196 -0.130235
C44   C     C_R   0.808843 0.414070 0.948882 -0.127069
C45   C     C_R   0.552339 0.157236 0.177903 0.547459
C46   C     C_R   0.448039 0.157119 0.821814 0.543844
C47   C     C_R   0.052470 0.657317 0.177838 0.536474
C48   C     C_R   0.948124 0.657049 0.821776 0.544917
C49   C     C_R   0.687459 0.930999 0.101886 -0.127612
C50   C     C_R   0.305324 0.920674 0.898660 -0.130862
C51   C     C_R   0.185282 0.442922 0.100287 -0.126578
C52   C     C_R   0.812415 0.429368 0.897984 -0.128100
C53   C     C_R   0.718296 0.834396 0.949654 -0.167348
C54   C     C_R   0.261622 0.776663 0.041935 -0.159708
C55   C     C_R   0.213519 0.345656 0.948023 -0.170197
C56   C     C_R   0.781275 0.332395 0.050157 -0.166618
C57   C     C_R   0.724129 0.817073 0.899154 -0.143892
C58   C     C_R   0.255618 0.763806 0.093101 -0.148916
C59   C     C_R   0.220021 0.326230 0.897717 -0.145711
C60   C     C_R   0.775662 0.315790 0.100730 -0.144245
C61   C     C_R   0.787134 0.967679 0.892551 -0.120332
C62   C     C_R   0.175673 0.889673 0.092721 -0.114348
C63   C     C_R   0.288781 0.469084 0.891637 -0.118405
C64   C     C_R   0.711878 0.466548 0.106951 -0.119969
C65   C     C_R   0.780259 0.987389 0.943504 0.248780
C66   C     C_R   0.181978 0.904561 0.041418 0.249154
C67   C     C_R   0.281730 0.490444 0.942356 0.248631
C68   C     C_R   0.718522 0.485540 0.055918 0.248791
C69   C     C_R   0.747819 0.917037 0.972503 0.071592
C70   C     C_R   0.225307 0.847104 0.015637 0.070562
C71   C     C_R   0.245946 0.424838 0.971097 0.072723
C72   C     C_R   0.751329 0.414826 0.027093 0.071611
C73   C     C_R   0.760713 0.880815 0.870706 -0.009530
C74   C     C_R   0.213193 0.821348 0.119095 -0.012765
C75   C     C_R   0.259894 0.384608 0.869757 -0.010729
C76   C     C_R   0.738878 0.380046 0.129057 -0.010716
C77   C     C_R   0.528339 0.168907 0.371227 0.023950
C78   C     C_R   0.473905 0.169341 0.629819 0.023120
C79   C     C_R   0.028443 0.669418 0.371199 0.022948
C80   C     C_R   0.973630 0.669028 0.629686 0.022660
C81   C     C_R   0.536131 0.260923 0.397991 -0.126823
C82   C     C_R   0.464564 0.260240 0.602343 -0.127646
C83   C     C_R   0.038405 0.760183 0.398529 -0.125791
C84   C     C_R   0.965168 0.760530 0.602491 -0.127025
C85   C     C_R   0.526644 0.263377 0.448941 -0.118290
C86   C     C_R   0.477108 0.262897 0.551924 -0.124478
C87   C     C_R   0.028013 0.762522 0.449331 -0.121277
C88   C     C_R   0.977260 0.763192 0.551980 -0.122238
C89   C     C_R   0.731121 0.002060 0.179291 0.547195
C90   C     C_R   0.268504 0.000321 0.820185 0.543853
C91   C     C_R   0.230876 0.502834 0.179016 0.534735
C92   C     C_R   0.768882 0.501662 0.820635 0.544548
C93   C     C_R   0.507581 0.174578 0.473830 0.037727
C94   C     C_R   0.500324 0.175381 0.528245 0.036030
C95   C     C_R   0.006442 0.674786 0.473576 0.036444
C96   C     C_R   0.999042 0.674996 0.527943 0.036542
C97   C     C_R   0.495328 0.084838 0.446337 -0.120708
C98   C     C_R   0.514313 0.087328 0.556654 -0.118220
C99   C     C_R   0.992478 0.586442 0.445590 -0.119430
C100  C     C_R   0.012027 0.586075 0.555993 -0.118548
C101  C     C_R   0.506034 0.081782 0.395505 -0.129343
C102  C     C_R   0.500723 0.084009 0.607011 -0.128224
C103  C     C_R   0.003745 0.583542 0.394830 -0.128086
C104  C     C_R   0.999045 0.582874 0.606453 -0.128427
C105  C     C_R   0.737370 0.963946 0.374025 0.023101
C106  C     C_R   0.259197 0.953073 0.628950 0.024863
C107  C     C_R   0.240394 0.455159 0.371623 0.024875
C108  C     C_R   0.754603 0.439588 0.632612 0.022360
C109  C     C_R   0.685155 0.940512 0.399919 -0.122924
C110  C     C_R   0.309239 0.916259 0.603595 -0.126295
C111  C     C_R   0.190088 0.420036 0.396923 -0.125253
C112  C     C_R   0.801369 0.398213 0.604623 -0.128837
C113  C     C_R   0.686474 0.932023 0.451058 -0.121136
C114  C     C_R   0.306063 0.899883 0.552932 -0.123181
C115  C     C_R   0.192704 0.405424 0.447714 -0.123082
C116  C     C_R   0.790017 0.356279 0.557858 -0.121851
C117  C     C_R   0.740323 0.943045 0.477105 0.037530
C118  C     C_R   0.252313 0.916586 0.527188 0.038269
C119  C     C_R   0.246179 0.421982 0.473709 0.038338
C120  C     C_R   0.731639 0.354079 0.538624 0.036085
C121  C     C_R   0.793378 0.959031 0.451069 -0.124570
C122  C     C_R   0.200688 0.942750 0.553387 -0.120315
C123  C     C_R   0.298032 0.446916 0.447726 -0.120320
C124  C     C_R   0.684326 0.386203 0.568759 -0.118534
C125  C     C_R   0.791844 0.970248 0.399692 -0.138486
C126  C     C_R   0.204211 0.961800 0.604112 -0.130032
C127  C     C_R   0.295051 0.464342 0.396840 -0.129981
C128  C     C_R   0.695779 0.429659 0.615224 -0.129257
C129  C     C_R   0.779588 0.995709 0.560002 -0.118925
C130  C     C_R   0.215587 0.978044 0.444744 -0.119949
C131  C     C_R   0.282613 0.482097 0.556350 -0.119876
C132  C     C_R   0.682091 0.398106 0.458334 -0.121010
C133  C     C_R   0.704646 0.305907 0.327141 0.563632
C134  C     C_R   0.278583 0.347599 0.678455 0.542273
C135  C     C_R   0.221309 0.847415 0.321681 0.554153
C136  C     C_R   0.778340 0.848556 0.678830 0.542985
C137  C     C_R   0.787933 0.974256 0.610152 -0.126755
C138  C     C_R   0.209732 0.964188 0.393753 -0.129680
C139  C     C_R   0.288990 0.466649 0.607196 -0.129845
C140  C     C_R   0.677172 0.389584 0.407042 -0.127462
C141  C     C_R   0.714093 0.838473 0.604298 -0.128845
C142  C     C_R   0.279641 0.820911 0.398358 -0.126334
C143  C     C_R   0.219317 0.324263 0.602112 -0.126652
C144  C     C_R   0.750455 0.251848 0.408063 -0.129924
C145  C     C_R   0.706589 0.858602 0.554152 -0.122992
C146  C     C_R   0.284186 0.832918 0.449245 -0.123078
C147  C     C_R   0.214222 0.337885 0.551353 -0.123684
C148  C     C_R   0.755084 0.259837 0.459694 -0.115292
C149  C     C_R   0.741278 0.934119 0.531244 0.037857
C150  C     C_R   0.250787 0.909431 0.472998 0.038040
C151  C     C_R   0.247391 0.414540 0.527879 0.038057
C152  C     C_R   0.721449 0.334113 0.485208 0.038265
C153  C     C_R   0.757475 0.891845 0.631807 0.023830
C154  C     C_R   0.239940 0.882838 0.370703 0.023893
C155  C     C_R   0.259300 0.384734 0.629858 0.024823
C156  C     C_R   0.711963 0.317535 0.381248 0.020092
C157  C     C_R   0.554353 0.159006 0.321660 0.533250
C158  C     C_R   0.445998 0.158886 0.678576 0.541563
C159  C     C_R   0.054394 0.659072 0.321660 0.544552
C160  C     C_R   0.945963 0.658850 0.678553 0.540976
C161  C     C_R   0.731315 0.003245 0.323494 0.532344
C162  C     C_R   0.268137 0.001232 0.677285 0.543884
C163  C     C_R   0.231830 0.501726 0.322849 0.546498
C164  C     C_R   0.767922 0.500680 0.677289 0.544760
C165  C     C_R   0.504815 0.070208 0.103957 -0.004936
C166  C     C_R   0.500198 0.071317 0.894243 -0.004870
C167  C     C_R   0.004064 0.571267 0.104015 -0.005607
C168  C     C_R   0.999491 0.570338 0.894319 -0.004262
C169  C     C_R   0.504238 0.069218 0.051603 0.031128
C170  C     C_R   0.502768 0.069816 0.946609 0.031581
C171  C     C_R   0.003395 0.569733 0.051648 0.030480
C172  C     C_R   0.001927 0.569271 0.946664 0.032409
C173  C     C_R   0.505778 0.976536 0.973181 -0.142795
C174  C     C_R   0.504791 0.976177 0.024776 -0.144605
C175  C     C_R   0.003199 0.476175 0.973451 -0.145167
C176  C     C_R   0.002185 0.476429 0.025043 -0.146872
Cr1   Cr    Cr6+3 0.756570 0.170940 0.251190 1.011303
Cr2   Cr    Cr6+3 0.243430 0.170940 0.748810 1.010126
Cr3   Cr    Cr6+3 0.256570 0.670940 0.251190 1.009839
Cr4   Cr    Cr6+3 0.743430 0.670940 0.748810 1.009515
Cr5   Cr    Cr6+3 0.623740 0.299110 0.249580 1.006601
Cr6   Cr    Cr6+3 0.376260 0.299110 0.750420 1.009763
Cr7   Cr    Cr6+3 0.123740 0.799110 0.249580 1.005561
Cr8   Cr    Cr6+3 0.876260 0.799110 0.750420 1.010319
Cr9   Cr    Cr6+3 0.625990 0.036240 0.250480 1.000187
Cr10  Cr    Cr6+3 0.374010 0.036240 0.749520 1.005772
Cr11  Cr    Cr6+3 0.125990 0.536240 0.250480 1.001536
Cr12  Cr    Cr6+3 0.874010 0.536240 0.749520 1.006258
H1    H     H_    0.814745 0.017782 0.870421 0.108292
H2    H     H_    0.141865 0.933260 0.112090 0.115227
H3    H     H_    0.318815 0.515472 0.869846 0.110486
H4    H     H_    0.684041 0.516964 0.128963 0.109723
H5    H     H_    0.650182 0.900929 0.030072 0.108047
H6    H     H_    0.332394 0.873910 0.971657 0.107535
H7    H     H_    0.147377 0.420488 0.028043 0.111316
H8    H     H_    0.849362 0.398465 0.969896 0.107889
H9    H     H_    0.644050 0.927755 0.118932 0.134872
H10   H     H_    0.350699 0.937655 0.888224 0.133087
H11   H     H_    0.141699 0.443793 0.117121 0.139105
H12   H     H_    0.855959 0.426368 0.881124 0.134828
H13   H     H_    0.553368 0.329305 0.380267 0.122507
H14   H     H_    0.443483 0.327094 0.618830 0.133513
H15   H     H_    0.058128 0.827312 0.381462 0.133811
H16   H     H_    0.945182 0.828033 0.619307 0.132672
H17   H     H_    0.534073 0.019876 0.539642 0.099646
H18   H     H_    0.478643 0.016236 0.464274 0.100697
H19   H     H_    0.030643 0.518019 0.538641 0.101543
H20   H     H_    0.974073 0.518743 0.463129 0.102552
H21   H     H_    0.508695 0.013292 0.627510 0.121143
H22   H     H_    0.499384 0.009972 0.375689 0.123489
H23   H     H_    0.006300 0.511629 0.626699 0.122213
H24   H     H_    0.995595 0.512738 0.374559 0.123853
H25   H     H_    0.536725 0.333574 0.469068 0.095417
H26   H     H_    0.465496 0.331654 0.531067 0.098752
H27   H     H_    0.039525 0.831476 0.469932 0.099130
H28   H     H_    0.966552 0.832657 0.531340 0.099099
H29   H     H_    0.642205 0.936410 0.381256 0.138664
H30   H     H_    0.352292 0.908641 0.621880 0.133286
H31   H     H_    0.147225 0.412293 0.378408 0.134671
H32   H     H_    0.847176 0.404478 0.617333 0.129060
H33   H     H_    0.805186 0.056844 0.543246 0.095399
H34   H     H_    0.191113 0.040090 0.462234 0.101210
H35   H     H_    0.306879 0.544259 0.539086 0.100752
H36   H     H_    0.656494 0.457618 0.476685 0.099206
H37   H     H_    0.820880 0.017550 0.631077 0.123726
H38   H     H_    0.179238 0.013179 0.372904 0.123203
H39   H     H_    0.319584 0.514712 0.628166 0.121690
H40   H     H_    0.646503 0.440662 0.387639 0.126462
H41   H     H_    0.506414 0.902712 0.954460 0.109422
H42   H     H_    0.506544 0.902195 0.043348 0.108252
H43   H     H_    0.002431 0.402175 0.954885 0.109428
H44   H     H_    0.002510 0.402595 0.043777 0.109196
H45   H     H_    0.644925 0.920510 0.470276 0.099731
H46   H     H_    0.346595 0.880088 0.533660 0.099088
H47   H     H_    0.152002 0.386671 0.466825 0.098812
H48   H     H_    0.827421 0.332759 0.535438 0.099738
H49   H     H_    0.676747 0.809919 0.532802 0.101292
H50   H     H_    0.311387 0.778598 0.470134 0.098672
H51   H     H_    0.186980 0.284380 0.530294 0.098976
H52   H     H_    0.785393 0.208879 0.479559 0.100200
H53   H     H_    0.689739 0.774859 0.620239 0.132227
H54   H     H_    0.303346 0.757121 0.381541 0.135086
H55   H     H_    0.195907 0.260239 0.618662 0.134870
H56   H     H_    0.776916 0.194410 0.389142 0.137804
H57   H     H_    0.835782 0.964598 0.470466 0.101877
H58   H     H_    0.158210 0.952245 0.534396 0.099780
H59   H     H_    0.340315 0.456322 0.466947 0.100074
H60   H     H_    0.638713 0.382740 0.555295 0.104762
H61   H     H_    0.832517 0.988547 0.380409 0.123399
H62   H     H_    0.164945 0.988992 0.623197 0.122167
H63   H     H_    0.334480 0.490454 0.377855 0.122793
H64   H     H_    0.658883 0.459139 0.636641 0.123169
H65   H     H_    0.469416 0.327943 0.877570 0.127431
H66   H     H_    0.529440 0.327978 0.121979 0.126742
H67   H     H_    0.972418 0.827946 0.876938 0.126873
H68   H     H_    0.032762 0.828001 0.121296 0.118982
H69   H     H_    0.490496 0.424198 0.954600 0.109908
H70   H     H_    0.507567 0.424091 0.044812 0.109946
H71   H     H_    0.996012 0.924123 0.953677 0.115237
H72   H     H_    0.013045 0.924132 0.043897 0.104674
H73   H     H_    0.833732 0.984147 0.126391 0.121167
H74   H     H_    0.161694 0.936722 0.856504 0.118075
H75   H     H_    0.333057 0.478666 0.125990 0.121424
H76   H     H_    0.666007 0.482819 0.872930 0.120320
H77   H     H_    0.692971 0.779982 0.971344 0.144286
H78   H     H_    0.295321 0.732358 0.022929 0.168074
H79   H     H_    0.185523 0.294958 0.969478 0.125080
H80   H     H_    0.806871 0.277704 0.028603 0.145404
H81   H     H_    0.703519 0.749054 0.883275 0.150750
H82   H     H_    0.284137 0.708807 0.112290 0.148934
H83   H     H_    0.197213 0.260473 0.881719 0.149752
H84   H     H_    0.796671 0.247971 0.116798 0.150185
H85   H     H_    0.840200 0.950932 0.037144 0.147289
H86   H     H_    0.143509 0.865672 0.939269 0.156481
H87   H     H_    0.338921 0.448522 0.036394 0.150024
H88   H     H_    0.659103 0.448569 0.962058 0.147895
O1    O     O_R   0.769900 0.064540 0.196060 -0.519520
O2    O     O_R   0.230100 0.064540 0.803940 -0.517884
O3    O     O_R   0.269900 0.564540 0.196060 -0.529919
O4    O     O_R   0.730100 0.564540 0.803940 -0.521876
O5    O     O_R   0.574760 0.239320 0.300850 -0.522430
O6    O     O_R   0.425240 0.239320 0.699150 -0.504699
O7    O     O_R   0.074760 0.739320 0.300850 -0.503435
O8    O     O_R   0.925240 0.739320 0.699150 -0.504730
O9    O     O_R   0.566290 0.069580 0.305400 -0.524670
O10   O     O_R   0.433710 0.069580 0.694600 -0.524147
O11   O     O_R   0.066290 0.569580 0.305400 -0.521291
O12   O     O_R   0.933710 0.569580 0.694600 -0.523653
O13   O     O_R   0.680760 0.993330 0.302620 -0.506983
O14   O     O_R   0.319240 0.993330 0.697380 -0.506325
O15   O     O_R   0.180760 0.493330 0.302620 -0.503121
O16   O     O_R   0.819240 0.493330 0.697380 -0.503251
O17   O     O_3   0.668770 0.168760 0.250420 -0.258441
O18   O     O_3   0.331230 0.168760 0.749580 -0.233718
O19   O     O_3   0.168770 0.668760 0.250420 -0.256147
O20   O     O_3   0.831230 0.668760 0.749580 -0.233715
O21   O     O_R   0.750800 0.274080 0.199250 -0.497726
O22   O     O_R   0.249200 0.274080 0.800750 -0.502902
O23   O     O_R   0.250800 0.774080 0.199250 -0.497178
O24   O     O_R   0.749200 0.774080 0.800750 -0.504591
O25   O     O_R   0.669990 0.371670 0.194150 -0.512959
O26   O     O_R   0.330010 0.371670 0.805850 -0.519587
O27   O     O_R   0.169990 0.871670 0.194150 -0.520331
O28   O     O_R   0.830010 0.871670 0.805850 -0.517930
O29   O     O_R   0.574600 0.238480 0.197800 -0.499314
O30   O     O_R   0.425400 0.238480 0.802200 -0.500858
O31   O     O_R   0.074600 0.738480 0.197800 -0.519343
O32   O     O_R   0.925400 0.738480 0.802200 -0.500283
O33   O     O_R   0.566130 0.068680 0.194240 -0.519325
O34   O     O_R   0.433870 0.068680 0.805760 -0.520822
O35   O     O_R   0.066130 0.568680 0.194240 -0.521223
O36   O     O_R   0.933870 0.568680 0.805760 -0.521769
O37   O     O_R   0.680610 0.992490 0.199570 -0.501726
O38   O     O_R   0.319390 0.992490 0.800430 -0.503701
O39   O     O_R   0.180610 0.492490 0.199570 -0.505617
O40   O     O_R   0.819390 0.492490 0.800430 -0.505320
O41   O     O_R   0.770060 0.065440 0.307230 -0.533167
O42   O     O_R   0.229940 0.065440 0.692770 -0.524202
O43   O     O_R   0.270060 0.565440 0.307230 -0.522087
O44   O     O_R   0.729940 0.565440 0.692770 -0.522008
O45   O     O_R   0.750960 0.274920 0.302300 -0.498252
O46   O     O_R   0.249040 0.274920 0.697700 -0.506675
O47   O     O_R   0.250960 0.774920 0.302300 -0.500684
O48   O     O_R   0.749040 0.774920 0.697700 -0.505262
O49   O     O_R   0.670160 0.372580 0.305320 -0.522448
O50   O     O_R   0.329840 0.372580 0.694680 -0.523078
O51   O     O_R   0.170160 0.872580 0.305320 -0.517787
O52   O     O_R   0.829840 0.872580 0.694680 -0.523946
C177  C     C_3   0.518883 0.976798 0.865050 -0.379269
H89   H     H_    0.531188 0.996815 0.826428 0.150434
H90   H     H_    0.559662 0.942020 0.881944 0.118714
H91   H     H_    0.482553 0.918987 0.864648 0.134891
C178  C     C_3   0.486616 0.974525 0.132272 -0.376429
H92   H     H_    0.471330 0.993767 0.170243 0.153838
H93   H     H_    0.447836 0.937467 0.113644 0.119025
H94   H     H_    0.524256 0.918752 0.134287 0.132944
C179  C     C_3   0.017255 0.474887 0.865423 -0.379302
H95   H     H_    0.980154 0.418562 0.864767 0.133646
H96   H     H_    0.030342 0.494217 0.826903 0.150328
H97   H     H_    0.057337 0.438532 0.882717 0.118250
C180  C     C_3   0.984668 0.476722 0.132634 -0.377257
H98   H     H_    0.021419 0.419165 0.134395 0.133272
H99   H     H_    0.970214 0.496861 0.170730 0.154024
H100  H     H_    0.945050 0.441513 0.114385 0.119559
O53   O     O_3   0.805059 0.073518 0.965616 -0.728747
H101  H     H_    0.825656 0.114692 0.940023 0.313616
O54   O     O_3   0.148276 0.977999 0.016463 -0.724790
H102  H     H_    0.120663 0.011671 0.040000 0.310754
O55   O     O_3   0.309920 0.573214 0.964548 -0.743418
H103  H     H_    0.332503 0.611512 0.939105 0.312751
O56   O     O_3   0.693212 0.571401 0.033578 -0.728475
H104  H     H_    0.672403 0.612879 0.059066 0.313544

loop_
_geom_bond_atom_site_label_1
_geom_bond_atom_site_label_2
_ccdc_geom_bond_type
C99   C103  A    
C7    C168  A    
C92   O40   A    
C37   C69   S    
C78   C82   A    
C142  C146  A    
C131  C151  A    
C19   C20   A    
C45   O29   A    
C53   C69   A    
C165  C169  A    
C38   C70   S    
C179  H95   S    
C50   H10   S    
C62   H2    S    
C178  H92   S    
C108  C164  S    
C55   C59   A    
C26   C50   A    
C95   C99   A    
C176  H44   S    
C29   C33   A    
C100  C104  A    
C31   H75   S    
C32   H76   S    
C3    C74   S    
C9    C13   A    
C41   H5    S    
C146  C150  A    
C77   C101  A    
Cr7   O51   S    
C12   C16   A    
C56   C72   A    
C169  C174  A    
C172  C175  A    
C141  C145  A    
C122  H58   S    
C107  C111  A    
C84   H16   S    
C6    C165  A    
C35   H87   S    
C21   C22   A    
C61   H1    S    
C41   C49   A    
C64   H4    S    
C18   C170  A    
C22   H69   S    
C25   C29   A    
C44   H8    S    
C160  O8    A    
C27   C31   A    
C28   C32   A    
Cr9   O13   S    
C114  H46   S    
Cr10  O10   S    
C82   H14   S    
C62   C66   A    
C167  C171  A    
C98   C102  A    
C60   C76   A    
Cr6   O30   S    
C30   H74   S    
C15   C19   A    
Cr2   O2    S    
C134  C155  S    
C54   C70   A    
C57   H81   S    
C68   C72   A    
C11   H68   S    
C137  C153  A    
C2    O26   A    
C3    O23   A    
Cr8   O28   S    
C20   C172  A    
C132  C152  A    
C130  C138  A    
C179  H97   S    
C178  H94   S    
C148  H52   S    
C84   C88   A    
C92   O4    A    
Cr6   O6    S    
C119  C123  A    
C26   C90   S    
C5    C46   S    
C58   H82   S    
C105  C125  A    
C7    C48   S    
Cr6   O26   S    
C125  H61   S    
C8    C47   S    
C107  C127  A    
C136  C153  S    
C66   C70   A    
C53   H77   S    
C144  H56   S    
Cr3   O23   S    
C167  C180  S    
C61   C65   A    
C158  O6    A    
C129  C137  A    
C39   C71   S    
C47   O31   A    
C4    O24   A    
C89   O37   A    
C36   H88   S    
C55   C71   A    
C2    C75   S    
C124  H60   S    
O55   H103  S    
Cr10  O38   S    
C10   H65   S    
C161  O13   A    
O56   H104  S    
C134  O46   A    
Cr4   O4    S    
C46   O34   A    
C6    C9    A    
C49   H9    S    
C129  C149  A    
C64   C68   A    
C139  H39   S    
C63   H3    S    
C43   H7    S    
Cr8   O32   S    
C57   C73   A    
C137  H37   S    
C123  C127  A    
C78   C158  S    
C146  H50   S    
C87   C95   A    
C130  C150  A    
C163  O43   A    
C23   C24   A    
C27   C91   S    
C52   H12   S    
C97   H18   S    
C110  C114  A    
C44   C52   A    
C157  O5    A    
C164  O44   A    
C177  H90   S    
C79   C103  A    
C111  H31   S    
C27   C51   A    
C180  H99   S    
C7    C12   A    
C140  H40   S    
C30   C34   A    
C59   H83   S    
Cr2   O22   S    
C10   C14   A    
C164  O16   A    
C133  O49   A    
C142  H54   S    
C108  C128  A    
C116  C120  A    
C144  C156  A    
C147  C151  A    
C86   H26   S    
C121  C125  A    
C143  C155  A    
C139  C155  A    
C89   O1    A    
C17   C18   A    
C112  H32   S    
C5    C166  A    
C142  C154  A    
C91   O3    A    
C174  H42   S    
C4    C73   S    
Cr12  O20   S    
C51   H11   S    
C42   C50   A    
C113  C117  A    
C107  C163  S    
C23   H72   S    
C166  C170  A    
C115  C119  A    
C143  H55   S    
Cr9   O17   S    
Cr10  O14   S    
C93   C97   A    
C112  C116  A    
Cr11  O19   S    
C58   C74   A    
Cr4   O44   S    
C105  C109  A    
C40   C72   S    
C1    C76   S    
C165  C178  S    
C148  C152  A    
C117  C149  S    
C102  H21   S    
C26   C30   A    
C147  H51   S    
C171  C176  A    
C13   C17   A    
C14   C22   A    
Cr3   O47   S    
C141  C153  A    
C33   H85   S    
C96   C100  A    
C105  C161  S    
C37   C41   A    
C56   H80   S    
C163  O15   A    
C68   O56   S    
C131  C139  A    
C40   C44   A    
C131  H35   S    
C138  C154  A    
C81   C85   A    
C83   C87   A    
C88   C96   A    
Cr1   O17   S    
C6    C45   S    
C78   C102  A    
C133  C156  S    
Cr3   O19   S    
Cr7   O19   S    
C80   C84   A    
C115  H47   S    
C113  H45   S    
C135  C154  S    
C80   C104  A    
C1    O21   A    
C79   C159  S    
C80   C160  S    
C94   C98   A    
C135  O47   A    
C47   O35   A    
C4    O28   A    
C118  C150  S    
C90   O38   A    
Cr12  O16   S    
Cr12  O12   S    
C159  O7    A    
Cr11  O39   S    
C66   O54   S    
C46   O30   A    
C124  C128  A    
C121  H57   S    
C12   H67   S    
Cr4   O20   S    
Cr1   O21   S    
Cr7   O31   S    
Cr6   O18   S    
C179  H96   S    
C100  H19   S    
C178  H93   S    
C130  H34   S    
C83   H15   S    
O54   H102  S    
C53   C57   A    
C81   H13   S    
C61   C73   A    
C173  C174  A    
C141  H53   S    
C108  C112  A    
C48   O36   A    
Cr12  O36   S    
C35   C39   A    
C8    C167  A    
Cr4   O48   S    
C162  O42   A    
C116  H48   S    
Cr9   O33   S    
C128  H64   S    
Cr11  O35   S    
C31   C35   A    
C136  O52   A    
Cr1   O41   S    
C32   C36   A    
Cr3   O43   S    
C133  O45   A    
Cr5   O17   S    
C132  H36   S    
Cr8   O8    S    
C162  O14   A    
C157  O9    A    
C132  C140  A    
C106  C126  A    
C25   C89   S    
C99   H20   S    
C126  H62   S    
C45   O33   A    
Cr12  O40   S    
C55   H79   S    
C82   C86   A    
C79   C83   A    
C43   C51   A    
C65   C69   A    
C67   C71   A    
C106  C162  S    
Cr10  O18   S    
C25   C49   A    
Cr11  O15   S    
C56   C60   A    
C168  C172  A    
C90   O2    A    
Cr7   O7    S    
C134  O50   A    
C87   H27   S    
C62   C74   A    
Cr8   O52   S    
C145  C149  A    
C170  C173  A    
C93   C94   S    
Cr2   O46   S    
C177  H89   S    
C14   C18   A    
C9    H66   S    
C144  C148  A    
Cr8   O20   S    
C180  H98   S    
C143  C147  A    
C34   H86   S    
C24   H71   S    
C54   H78   S    
C63   C75   A    
C161  O41   A    
C19   C171  A    
C38   C42   A    
C118  C122  A    
C17   C169  A    
C21   H70   S    
C42   H6    S    
Cr9   O9    S    
C117  C121  A    
C86   C94   A    
Cr11  O11   S    
C175  C176  A    
C166  C177  S    
Cr5   O29   S    
Cr2   O18   S    
C29   H73   S    
C98   H17   S    
C77   C81   A    
C16   C20   A    
Cr5   O49   S    
C15   C23   A    
Cr3   O3    S    
C16   C24   A    
C1    O25   A    
Cr1   O45   S    
C2    O22   A    
C110  H30   S    
C3    O27   A    
C119  C151  S    
C63   C67   A    
C120  C152  S    
C135  O51   A    
C175  H43   S    
C13   C21   A    
C36   C40   A    
C109  H29   S    
C129  H33   S    
C67   O55   S    
C91   O39   A    
C39   C43   A    
C159  O11   A    
C145  H49   S    
C160  O12   A    
C122  C126  A    
C65   O53   S    
Cr5   O5    S    
C85   H25   S    
C85   C93   A    
Cr4   O24   S    
C138  H38   S    
C64   C76   A    
Cr5   O25   S    
C28   C92   S    
C60   H84   S    
C48   O32   A    
C109  C113  A    
Cr7   O27   S    
C114  C118  A    
C173  H41   S    
C140  C156  A    
C11   C15   A    
C177  H91   S    
C59   C75   A    
C33   C37   A    
C54   C58   A    
C180  H100  S    
C158  O10   A    
C88   H28   S    
C34   C38   A    
C103  H24   S    
Cr1   O1    S    
C101  H22   S    
Cr9   O37   S    
Cr6   O50   S    
Cr10  O34   S    
C5    C10   A    
C123  H59   S    
C28   C52   A    
C8    C11   A    
C136  O48   A    
C127  H63   S    
Cr2   O42   S    
C106  C110  A    
C95   C96   S    
C111  C115  A    
C104  H23   S    
O53   H101  S    
C168  C179  S    
C97   C101  A    
C120  C124  A    
C77   C157  S    
