data_mof_unit_pretest_639.cif
_audit_creation_date              2012-12-10T22:11:12-0500
_audit_creation_method            fapswitch 2.2
_symmetry_space_group_name_H-M    P1
_symmetry_Int_Tables_number       1
_space_group_crystal_system       triclinic
_cell_length_a                    12.107055
_cell_length_b                    12.349392
_cell_length_c                    22.961765
_cell_angle_alpha                 90.954903
_cell_angle_beta                  90.751387
_cell_angle_gamma                 90.342618
_cell_volume                      3432.28504931

loop_
_atom_site_label
_atom_site_type_symbol
_atom_type_description
_atom_site_fract_x
_atom_site_fract_y
_atom_site_fract_z
_atom_type_partial_charge
C1    C     C_R   0.657576 0.998110 0.579042 0.856024
C2    C     C_R   0.089935 0.820224 0.797376 -0.184071
C3    C     C_R   0.910651 0.261269 0.162227 -0.228211
C4    C     C_R   0.089302 0.738658 0.837732 -0.228182
C5    C     C_R   0.109049 0.912848 0.323415 -0.184064
C6    C     C_R   0.891013 0.087129 0.676553 -0.184041
C7    C     C_R   0.192210 0.910420 0.365295 -0.201470
C8    C     C_R   0.807848 0.089559 0.634674 -0.201430
C9    C     C_R   0.880319 0.096828 0.325993 -0.184591
C10   C     C_R   0.119602 0.903224 0.673958 -0.184573
C11   C     C_R   0.800390 0.093942 0.368151 -0.246689
C12   C     C_R   0.342424 0.001891 0.420958 0.856171
C13   C     C_R   0.199512 0.906119 0.631791 -0.246693
C14   C     C_3   0.994449 0.009340 0.247074 -0.072623
C15   C     C_3   0.005563 0.990662 0.752926 -0.072573
C16   C     C_R   0.652931 0.001354 0.419848 0.878907
C17   C     C_R   0.347077 0.998642 0.580154 0.878824
C18   C     C_R   0.091424 0.006578 0.290352 0.166977
C19   C     C_R   0.908581 0.993429 0.709649 0.166893
C20   C     C_R   0.255345 0.003492 0.377168 -0.020256
C21   C     C_R   0.744652 0.996513 0.622835 -0.020219
C22   C     C_R   0.895388 0.008219 0.287619 0.116475
C23   C     C_R   0.898123 0.812222 0.124651 -0.260703
C24   C     C_R   0.104639 0.991771 0.712387 0.116393
C25   C     C_R   0.733785 0.001984 0.373705 -0.060435
C26   C     C_R   0.266262 0.997993 0.626311 -0.060229
C27   C     C_R   0.000875 0.109181 0.208348 0.083357
C28   C     C_R   0.999125 0.890814 0.791649 0.083407
C29   C     C_R   0.001219 0.273779 0.126297 -0.063964
C30   C     C_R   0.998776 0.726211 0.873697 -0.063990
C31   C     C_R   0.990939 0.913785 0.203261 0.079819
C32   C     C_R   0.009070 0.086218 0.796741 0.079845
C33   C     C_R   0.990239 0.746184 0.119593 -0.054239
C34   C     C_R   0.101839 0.187714 0.875391 -0.260713
C35   C     C_R   0.009765 0.253819 0.880409 -0.054219
C36   C     C_R   0.992545 0.661168 0.075752 0.883204
C37   C     C_R   0.007455 0.338833 0.924249 0.883200
C38   C     C_R   0.999469 0.353838 0.081435 0.885874
C39   C     C_R   0.000530 0.646157 0.918563 0.885866
C40   C     C_R   0.150855 0.101529 0.305854 -0.142740
C41   C     C_R   0.849077 0.898501 0.694184 -0.142857
C42   C     C_R   0.233196 0.099379 0.347956 -0.211299
C43   C     C_R   0.766736 0.900652 0.652082 -0.211327
C44   C     C_R   0.830719 0.914271 0.295036 -0.250862
C45   C     C_R   0.082685 0.844816 0.196929 -0.241868
C46   C     C_R   0.169483 0.085634 0.705054 -0.250913
C47   C     C_R   0.746991 0.912105 0.335826 0.209411
C48   C     C_R   0.253258 0.087762 0.664287 0.209413
C49   C     C_R   0.095057 0.126028 0.172740 0.225644
C50   C     C_R   0.904975 0.874020 0.827287 0.225608
C51   C     C_R   0.093161 0.207618 0.131932 -0.251710
C52   C     C_R   0.906869 0.792427 0.868094 -0.251757
C53   C     C_R   0.898832 0.898763 0.164344 0.233803
C54   C     C_R   0.101125 0.101170 0.835700 0.233703
C55   C     C_3   0.294584 0.106574 0.184555 -0.810815
C56   C     C_R   0.917364 0.155252 0.803035 -0.241725
C57   C     C_3   0.705452 0.893611 0.815532 -0.810794
C58   C     C_3   0.780343 0.023520 0.112451 -0.788374
C59   C     C_3   0.219418 0.976313 0.887644 -0.788222
C60   C     C_3   0.572009 0.832234 0.307646 -0.760748
C61   C     C_3   0.428650 0.166863 0.692391 -0.760603
C62   C     C_R   0.082267 0.762681 0.155686 -0.219157
C63   C     C_R   0.917780 0.237386 0.844278 -0.219200
C64   C     C_R   0.910019 0.179702 0.202579 -0.184172
H1    H     H_    0.279110 0.173162 0.357736 0.155293
H2    H     H_    0.837775 0.783491 0.897165 0.165771
H3    H     H_    0.838712 0.312435 0.157877 0.160811
H4    H     H_    0.161210 0.687442 0.842055 0.160776
H5    H     H_    0.205714 0.836454 0.388996 0.156468
H6    H     H_    0.794390 0.163501 0.610946 0.156460
H7    H     H_    0.844424 0.841258 0.269661 0.130234
H8    H     H_    0.155901 0.158600 0.730486 0.130191
H9    H     H_    0.189054 0.003174 0.139108 0.235041
H10   H     H_    0.354896 0.044307 0.198256 0.246818
H11   H     H_    0.290498 0.169722 0.219413 0.250725
H12   H     H_    0.720770 0.826889 0.642328 0.155288
H13   H     H_    0.324633 0.143897 0.143990 0.227361
H14   H     H_    0.811096 0.996919 0.860964 0.235068
H15   H     H_    0.645161 0.955932 0.801879 0.246803
H16   H     H_    0.675438 0.856255 0.856095 0.227364
H17   H     H_    0.709451 0.830504 0.780649 0.250737
H18   H     H_    0.736731 0.931384 0.182956 0.222122
H19   H     H_    0.720156 0.089041 0.121270 0.241696
H20   H     H_    0.743043 0.966435 0.079787 0.223010
H21   H     H_    0.856196 0.060308 0.094270 0.264133
H22   H     H_    0.263236 0.068429 0.817167 0.222100
H23   H     H_    0.158642 0.856417 0.221382 0.178239
H24   H     H_    0.279624 0.910795 0.878858 0.241702
H25   H     H_    0.143514 0.939519 0.905763 0.264118
H26   H     H_    0.256635 0.033379 0.920344 0.222988
H27   H     H_    0.058624 0.841010 0.316259 0.139901
H28   H     H_    0.941488 0.158940 0.683684 0.139947
H29   H     H_    0.714517 0.747775 0.326951 0.215101
H30   H     H_    0.519547 0.759543 0.314275 0.235712
H31   H     H_    0.585871 0.841351 0.260209 0.217049
H32   H     H_    0.527219 0.904164 0.324614 0.240319
H33   H     H_    0.286313 0.251934 0.673560 0.215086
H34   H     H_    0.841430 0.143699 0.778557 0.178228
H35   H     H_    0.481245 0.239527 0.685942 0.235686
H36   H     H_    0.473189 0.095047 0.675102 0.240282
H37   H     H_    0.415025 0.157184 0.739812 0.217060
H38   H     H_    0.826801 0.798616 0.096449 0.161638
H39   H     H_    0.173127 0.201271 0.903624 0.161616
H40   H     H_    0.154838 0.712232 0.151894 0.165341
H41   H     H_    0.845241 0.287887 0.848042 0.165319
H42   H     H_    0.792393 0.163308 0.397272 0.169539
H43   H     H_    0.207392 0.836827 0.602609 0.169505
H44   H     H_    0.133221 0.178742 0.286410 0.128648
H45   H     H_    0.834154 0.168657 0.225933 0.173668
H46   H     H_    0.866657 0.821298 0.713651 0.128696
H47   H     H_    0.165771 0.831215 0.773990 0.173595
H48   H     H_    0.932312 0.168235 0.323835 0.141590
H49   H     H_    0.067521 0.831872 0.676071 0.141630
H50   H     H_    0.162288 0.216597 0.102887 0.165783
N1    N     N_2   0.187748 0.055566 0.174537 -0.309828
N2    N     N_2   0.812331 0.944544 0.825526 -0.309793
N3    N     N_2   0.805632 0.968480 0.166214 -0.310968
N4    N     N_2   0.194274 0.031384 0.833873 -0.310959
N5    N     N_2   0.676449 0.819590 0.338090 -0.287840
N6    N     N_2   0.324077 0.180099 0.662157 -0.287935
O1    O     O_R   0.621380 0.090460 0.561410 -0.628154
O2    O     O_R   0.912410 0.372520 0.941210 -0.627715
O3    O     O_R   0.905660 0.383870 0.059980 -0.626049
O4    O     O_R   0.094340 0.616130 0.940020 -0.626037
O5    O     O_R   0.092570 0.390420 0.063230 -0.632202
O6    O     O_R   0.907430 0.609580 0.936770 -0.632184
O7    O     O_R   0.900680 0.620930 0.055550 -0.632769
O8    O     O_R   0.099320 0.379070 0.944450 -0.632765
O9    O     O_R   0.378620 0.909540 0.438590 -0.628174
O10   O     O_R   0.617150 0.909540 0.438590 -0.587569
O11   O     O_R   0.382850 0.090460 0.561410 -0.587606
O12   O     O_R   0.619720 0.093230 0.440890 -0.637415
O13   O     O_R   0.380280 0.906770 0.559110 -0.637412
O14   O     O_R   0.618800 0.906770 0.559110 -0.628727
O15   O     O_R   0.381200 0.093230 0.440890 -0.628745
O16   O     O_R   0.087590 0.627480 0.058790 -0.627724
Zn1   Zn    Zn3+2 0.501730 0.123520 0.501540 0.949721
Zn2   Zn    Zn3+2 0.498270 0.876480 0.498460 0.949707
Zn3   Zn    Zn3+2 0.125690 0.504390 0.002180 0.932693
Zn4   Zn    Zn3+2 0.874310 0.495610 0.997820 0.932697

loop_
_geom_bond_atom_site_label_1
_geom_bond_atom_site_label_2
_ccdc_geom_bond_type
C1    C21   S    
C17   O11   A    
C2    C28   A    
C57   H15   S    
O4    Zn3   S    
C61   H37   S    
C56   H34   S    
C14   C31   S    
C13   H43   S    
C49   C51   A    
C64   H45   S    
C15   C32   S    
C48   N6    S    
C3    C64   A    
O5    Zn3   S    
C15   C19   S    
C6    C19   A    
O6    Zn4   S    
C60   N5    S    
C17   C26   S    
C45   H23   S    
O8    Zn3   S    
C55   H13   S    
C53   N3    S    
C9    C22   A    
C23   H38   S    
C11   C25   A    
H14   N2    S    
C45   C62   A    
C16   C25   S    
C33   C36   S    
C44   H7    S    
C34   C35   A    
C59   H25   S    
O1    Zn1   S    
C3    C29   A    
C14   C18   S    
C59   H24   S    
C18   C40   A    
C21   C43   A    
C55   H10   S    
C28   C50   A    
C22   C44   A    
O9    Zn2   S    
C33   C62   A    
C23   C33   A    
C12   O15   A    
C29   C38   S    
C42   H1    S    
C50   C52   A    
C14   C27   S    
C63   H41   S    
C16   O10   A    
C25   C47   A    
C46   H8    S    
C38   O3    A    
C44   C47   A    
C26   C48   A    
C40   H44   S    
C37   O8    A    
C55   H11   S    
C9    H48   S    
C40   C42   A    
O13   Zn2   S    
C39   O6    A    
C61   N6    S    
C41   C43   A    
C57   H16   S    
C61   H35   S    
O16   Zn3   S    
C36   O16   A    
C32   C54   A    
C23   C53   A    
C57   N2    S    
C62   H40   S    
C46   C48   A    
C2    H47   S    
C51   H50   S    
C12   O9    A    
C4    H4    S    
C6    C8    A    
C5    C18   A    
C10   C24   A    
O12   Zn1   S    
O3    Zn4   S    
C58   N3    S    
C39   O4    A    
C59   H26   S    
C2    C4    A    
O14   Zn2   S    
O11   Zn1   S    
C58   H20   S    
C12   C20   S    
C11   H42   S    
C8    C21   A    
C56   C63   A    
H22   N4    S    
C31   C53   A    
C9    C11   A    
C5    H27   S    
C10   H49   S    
C60   H32   S    
C15   C24   S    
C49   N1    S    
C34   C54   A    
C59   N4    S    
C41   H46   S    
C54   N4    S    
C17   O13   A    
C57   H17   S    
C13   C26   A    
C61   H36   S    
O7    Zn4   S    
C1    O14   A    
O10   Zn2   S    
C58   H21   S    
C38   O5    A    
C52   H2    S    
C5    C7    A    
C29   C51   A    
C43   H12   S    
O15   Zn1   S    
C30   C52   A    
C35   C37   S    
C3    H3    S    
C10   C13   A    
C7    H5    S    
C20   C42   A    
C8    H6    S    
C34   H39   S    
H9    N1    S    
C24   C46   A    
C14   C22   S    
H33   N6    S    
O2    Zn4   S    
C58   H19   S    
C15   C28   S    
C55   N1    S    
C6    H28   S    
C47   N5    S    
C30   C39   S    
C50   N2    S    
C16   O12   A    
C1    O1    A    
C27   C64   A    
C37   O2    A    
C36   O7    A    
C60   H31   S    
C19   C41   A    
C7    C20   A    
C31   C45   A    
C35   C63   A    
H29   N5    S    
H18   N3    S    
C32   C56   A    
C4    C30   A    
C27   C49   A    
C60   H30   S    
