data_mof_unit_pretest_1738.cif
_audit_creation_date              2012-12-10T19:35:24-0500
_audit_creation_method            fapswitch 2.2
_symmetry_space_group_name_H-M    P1
_symmetry_Int_Tables_number       1
_space_group_crystal_system       triclinic
_cell_length_a                    16.328138
_cell_length_b                    16.839236
_cell_length_c                    19.119195
_cell_angle_alpha                 90.919551
_cell_angle_beta                  93.399814
_cell_angle_gamma                 88.857445
_cell_volume                      5246.00967004

loop_
_atom_site_label
_atom_site_type_symbol
_atom_type_description
_atom_site_fract_x
_atom_site_fract_y
_atom_site_fract_z
_atom_type_partial_charge
Br1   Br    Br    0.391317 0.375266 0.705012 -0.378843
Br2   Br    Br    0.475858 0.266444 0.354094 -0.413452
Br3   Br    Br    0.452971 0.071419 0.368468 -0.337111
Br4   Br    Br    0.653230 0.909416 0.604533 -0.345845
Br5   Br    Br    0.622866 0.636555 0.323659 -0.315386
Br6   Br    Br    0.990669 0.369988 0.540726 -0.426868
Br7   Br    Br    0.007756 0.631489 0.460355 -0.401919
Br8   Br    Br    0.391181 0.401871 0.877477 -0.289770
Br9   Br    Br    0.626398 0.656455 0.152567 -0.287771
Br10  Br    Br    0.606189 0.668856 0.862582 -0.359232
Br11  Br    Br    0.365876 0.429848 0.108296 -0.336917
Br12  Br    Br    0.666545 0.745952 0.510789 -0.323131
C1    C     C_R   0.489470 0.653219 0.501818 0.911718
C2    C     C_R   0.504830 0.099497 0.515161 0.019055
C3    C     C_R   0.405990 0.854058 0.558327 -0.199449
C4    C     C_R   0.531694 0.145269 0.573547 -0.165023
C5    C     C_R   0.408439 0.777623 0.529927 -0.068924
C6    C     C_R   0.537974 0.226821 0.568115 -0.068110
C7    C     C_2   0.475114 0.979059 0.578614 -0.161829
C8    C     C_2   0.500300 0.013928 0.521517 -0.089935
C9    C     C_R   0.754909 0.470179 0.457782 0.080576
C10   C     C_R   0.244439 0.535799 0.537983 0.076979
C11   C     C_R   0.839305 0.475903 0.453299 -0.188135
C12   C     C_R   0.510856 0.348124 0.500148 0.941997
C13   C     C_R   0.160059 0.530434 0.542877 -0.193336
C14   C     C_R   0.884349 0.522906 0.502183 0.116746
C15   C     C_R   0.115560 0.477637 0.498652 0.118347
C16   C     C_R   0.500264 0.501177 0.634463 0.923067
C17   C     C_R   0.499351 0.503204 0.365390 0.955401
C18   C     C_R   0.843332 0.563202 0.555483 -0.064039
C19   C     C_R   0.157587 0.430317 0.450266 -0.069028
C20   C     C_R   0.758275 0.555482 0.557849 0.037160
C21   C     C_R   0.242729 0.437224 0.447971 -0.003037
C22   C     C_2   0.973251 0.531357 0.494700 0.150685
C23   C     C_R   0.485313 0.738924 0.520269 -0.216291
C24   C     C_2   0.026502 0.469855 0.506623 0.144503
C25   C     C_R   0.453311 0.460774 0.749539 0.223679
C26   C     C_R   0.552197 0.571150 0.262751 0.222913
C27   C     C_R   0.452863 0.471799 0.822157 0.238265
C28   C     C_R   0.552224 0.582379 0.190415 0.233898
C29   C     C_R   0.499076 0.532920 0.854813 -0.147413
C30   C     C_R   0.496897 0.540729 0.145377 -0.142130
C31   C     C_R   0.545090 0.583806 0.816138 0.239206
C32   C     C_R   0.440074 0.489092 0.171547 0.236700
C33   C     C_R   0.545251 0.573547 0.743605 -0.130123
C34   C     C_R   0.516428 0.262763 0.503691 -0.185279
C35   C     C_R   0.439381 0.477771 0.243685 -0.132419
C36   C     C_R   0.500410 0.511144 0.710308 -0.241956
C37   C     C_R   0.497474 0.516508 0.289618 -0.253760
C38   C     C_R   0.500932 0.547511 0.070346 0.401214
C39   C     C_R   0.501237 0.541973 0.930044 0.403877
C40   C     C_1   0.886817 0.611957 0.607537 0.269676
C41   C     C_1   0.115139 0.375321 0.402906 0.259627
C42   C     C_1   0.588218 0.630155 0.703762 0.284680
C43   C     C_1   0.378441 0.425889 0.268973 0.380780
C44   C     C_1   0.566466 0.272430 0.629169 0.272390
C45   C     C_R   0.558928 0.780800 0.538312 0.233074
C46   C     C_1   0.330545 0.744196 0.506349 0.267689
C47   C     C_R   0.494216 0.216909 0.443844 0.199103
C48   C     C_R   0.554570 0.854925 0.571896 0.264319
C49   C     C_R   0.487987 0.134682 0.449542 0.280358
C50   C     C_R   0.478212 0.892862 0.577981 0.027637
H1    H     H_    0.719666 0.434884 0.419506 0.153974
H2    H     H_    0.548601 0.117280 0.623165 0.186061
H3    H     H_    0.279258 0.575428 0.572891 0.139444
H4    H     H_    0.276770 0.399663 0.413246 0.154938
H5    H     H_    0.725229 0.586459 0.597674 0.151492
H6    H     H_    0.129774 0.566331 0.581550 0.176771
H7    H     H_    0.869217 0.444820 0.411496 0.178575
H8    H     H_    0.519278 0.977278 0.477689 0.206191
H9    H     H_    0.450357 0.012328 0.621944 0.182722
H10   H     H_    0.347683 0.885899 0.560477 0.184750
N1    N     N_R   0.567146 0.514587 0.969351 -0.097849
N2    N     N_1   0.328900 0.384524 0.288075 -0.136096
N3    N     N_1   0.589646 0.308823 0.677991 -0.139602
N4    N     N_1   0.267948 0.718070 0.487297 -0.145198
N5    N     N_R   0.435589 0.576256 0.030959 -0.094310
N6    N     N_R   0.566906 0.517145 0.038715 -0.098867
N7    N     N_R   0.435736 0.573524 0.961549 -0.098546
N8    N     N_R   0.716290 0.510230 0.508970 -0.109247
N9    N     N_R   0.283710 0.489770 0.491030 -0.109698
N10   N     N_1   0.921713 0.651060 0.649276 -0.106900
N11   N     N_1   0.081104 0.331243 0.364895 -0.104863
N12   N     N_1   0.622531 0.675933 0.672480 -0.147479
O1    O     O_R   0.422340 0.612130 0.496770 -0.633814
O2    O     O_R   0.577660 0.387870 0.503230 -0.618267
O3    O     O_R   0.561240 0.618700 0.502530 -0.561210
O4    O     O_R   0.438760 0.381300 0.497470 -0.588087
O5    O     O_R   0.430520 0.496720 0.598980 -0.595708
O6    O     O_R   0.569480 0.503280 0.401020 -0.585993
O7    O     O_R   0.569430 0.503290 0.604740 -0.626801
O8    O     O_R   0.430570 0.496710 0.395260 -0.623147
Zn1   Zn    Zn3+2 0.407250 0.495620 0.496160 1.003696
Zn2   Zn    Zn3+2 0.592750 0.504380 0.503840 1.024211

loop_
_geom_bond_atom_site_label_1
_geom_bond_atom_site_label_2
_ccdc_geom_bond_type
C18   C20   A    
C34   C47   A    
C11   H7    S    
C7    H9    S    
C7    C8    D    
C42   N12   T    
C46   N4    T    
C35   C37   A    
C26   C37   A    
C17   C37   S    
C3    H10   S    
C1    C23   S    
C7    C50   S    
O3    Zn2   S    
C6    C34   A    
C48   C50   A    
C11   C14   A    
O2    Zn2   S    
C43   N2    T    
O1    Zn1   S    
C14   C22   S    
C10   C13   A    
N1    N6    A    
C19   C21   A    
C16   O5    A    
Br8   C27   S    
C32   C35   A    
C6    C44   S    
C5    C46   S    
Br3   C49   S    
C44   N3    T    
Br5   C26   S    
C29   C31   A    
C8    H8    S    
C13   H6    S    
C30   C32   A    
C38   N6    A    
C17   O6    A    
C21   H4    S    
O6    Zn2   S    
N5    N7    A    
C47   C49   A    
C15   C19   A    
C10   N9    A    
C2    C8    S    
C27   C29   A    
Br2   C47   S    
C45   C48   A    
C2    C49   A    
Br9   C28   S    
C10   H3    S    
C20   N8    A    
N9    Zn1   S    
C1    O3    A    
Br11  C32   S    
C19   C41   S    
C25   C36   A    
C40   N10   T    
C12   O4    A    
C30   C38   S    
C20   H5    S    
Br12  C45   S    
C4    C6    A    
C33   C42   S    
C14   C18   A    
C9    C11   A    
Br7   C22   S    
C2    C4    A    
N8    Zn2   S    
C38   N5    A    
C35   C43   S    
C33   C36   A    
C3    C5    A    
C18   C40   S    
O4    Zn1   S    
C16   C36   S    
Br10  C31   S    
C39   N1    A    
Br4   C48   S    
Br1   C25   S    
C15   C24   S    
C13   C15   A    
C4    H2    S    
C41   N11   T    
C23   C45   A    
C12   C34   S    
C31   C33   A    
O7    Zn2   S    
C26   C28   A    
C21   N9    A    
C9    N8    A    
C28   C30   A    
O8    Zn1   S    
C3    C50   A    
Br6   C24   S    
C16   O7    A    
C22   C24   D    
O5    Zn1   S    
C39   N7    A    
C9    H1    S    
C25   C27   A    
C1    O1    A    
C5    C23   A    
C12   O2    A    
C29   C39   S    
C17   O8    A    
