data_mof_unit_pretest_1618.cif
_audit_creation_date              2012-12-10T18:29:49-0500
_audit_creation_method            fapswitch 2.2
_symmetry_space_group_name_H-M    P1
_symmetry_Int_Tables_number       1
_space_group_crystal_system       triclinic
_cell_length_a                    19.372675
_cell_length_b                    18.028679
_cell_length_c                    23.536045
_cell_angle_alpha                 90.002096
_cell_angle_beta                  90.195684
_cell_angle_gamma                 89.999594
_cell_volume                      8220.23912837

loop_
_atom_site_label
_atom_site_type_symbol
_atom_type_description
_atom_site_fract_x
_atom_site_fract_y
_atom_site_fract_z
_atom_type_partial_charge
C1    C     C_R   0.367184 0.500000 0.499939 0.798678
C2    C     C_R   0.632816 0.500000 0.500061 0.798679
C3    C     C_R   0.499116 0.567195 0.238733 -0.099136
C4    C     C_R   0.499828 0.567231 0.761259 -0.099554
C5    C     C_R   0.499178 0.567284 0.297975 -0.214837
C6    C     C_R   0.499799 0.567306 0.702018 -0.214598
C7    C     C_R   0.499716 0.499992 0.328145 -0.045288
C8    C     C_R   0.500277 0.500008 0.671856 -0.045291
C9    C     C_R   0.500094 0.432693 0.297982 -0.214576
C10   C     C_R   0.500906 0.432718 0.702025 -0.214840
C11   C     C_R   0.500055 0.432767 0.238741 -0.099566
C12   C     C_R   0.500960 0.432805 0.761267 -0.099113
C13   C     C_R   0.499594 0.499978 0.208911 0.352668
C14   C     C_R   0.500381 0.500021 0.791091 0.352612
C15   C     C_R   0.254726 0.567206 0.499782 -0.178337
C16   C     C_R   0.745274 0.432794 0.500218 -0.178336
C17   C     C_R   0.745273 0.567205 0.500218 -0.179969
C18   C     C_R   0.254727 0.432795 0.499781 -0.179968
C19   C     C_R   0.182804 0.567214 0.499768 -0.146830
C20   C     C_R   0.817195 0.432786 0.500232 -0.146830
C21   C     C_R   0.817194 0.567213 0.500232 -0.147611
C22   C     C_R   0.182806 0.432787 0.499768 -0.147611
C23   C     C_R   0.146110 0.500000 0.499792 0.053572
C24   C     C_R   0.853890 0.499999 0.500208 0.053572
C25   C     C_R   0.291295 0.500000 0.499833 -0.036544
C26   C     C_R   0.708705 0.499999 0.500167 -0.036546
C27   C     C_R   0.499880 0.499998 0.390698 0.811725
C28   C     C_R   0.500119 0.500002 0.609302 0.811725
C29   C     C_R   0.929978 0.500000 0.500119 0.415371
C30   C     C_R   0.070022 0.500000 0.499881 0.415371
C31   C     C_R   0.543191 0.278479 0.535538 0.083437
C32   C     C_R   0.456808 0.721520 0.464462 0.083429
C33   C     C_R   0.456809 0.278476 0.464461 0.083280
C34   C     C_R   0.543191 0.721523 0.535538 0.083270
C35   C     C_R   0.544005 0.200389 0.536208 -0.266860
C36   C     C_R   0.455994 0.799611 0.463792 -0.266861
C37   C     C_R   0.455996 0.200386 0.463792 -0.267146
C38   C     C_R   0.544005 0.799614 0.536208 -0.267149
C39   C     C_R   0.500001 0.159742 0.500000 0.058445
C40   C     C_R   0.499999 0.840258 0.500000 0.058442
C41   C     C_R   0.499999 0.923854 0.500000 0.430203
C42   C     C_R   0.500000 0.076146 0.500000 0.430204
C43   C     C_R   0.557468 0.475307 0.880736 0.533087
C44   C     C_R   0.442515 0.524718 0.119268 0.533098
C45   C     C_R   0.442975 0.524732 0.880271 0.534228
C46   C     C_R   0.556986 0.475236 0.119732 0.534236
C47   C     C_R   0.441720 0.525373 0.939866 -0.015556
C48   C     C_R   0.558245 0.474608 0.060137 -0.015563
C49   C     C_R   0.500045 0.500003 0.970016 -0.017600
C50   C     C_R   0.499925 0.499990 0.029987 -0.017599
C51   C     C_R   0.558488 0.474645 0.940341 -0.014823
C52   C     C_R   0.441488 0.525363 0.059662 -0.014831
C53   C     C_R   0.383687 0.550503 0.969888 -0.160142
C54   C     C_R   0.616279 0.449481 0.030115 -0.160142
C55   C     C_R   0.383574 0.550503 0.029167 -0.160376
C56   C     C_R   0.616401 0.449503 0.970837 -0.160377
Cu1   Cu    Cu3+1 0.500000 0.573360 0.500000 0.945810
Cu2   Cu    Cu3+1 0.500000 0.426640 0.500000 0.945818
H1    H     H_    0.578951 0.172184 0.564963 0.157696
H2    H     H_    0.421048 0.827816 0.435038 0.157701
H3    H     H_    0.421050 0.172178 0.435037 0.157177
H4    H     H_    0.578951 0.827822 0.564962 0.157180
H5    H     H_    0.337991 0.570254 0.050973 0.190321
H6    H     H_    0.661987 0.429762 0.949031 0.190322
H7    H     H_    0.498943 0.619356 0.215922 0.144656
H8    H     H_    0.499598 0.619396 0.784065 0.144577
H9    H     H_    0.500421 0.380016 0.320097 0.159835
H10   H     H_    0.501309 0.380037 0.679915 0.159580
H11   H     H_    0.500206 0.380601 0.215935 0.144536
H12   H     H_    0.501208 0.380645 0.784078 0.144690
H13   H     H_    0.156069 0.619954 0.499762 0.156671
H14   H     H_    0.843931 0.380045 0.500239 0.156671
H15   H     H_    0.843929 0.619953 0.500239 0.156484
H16   H     H_    0.156071 0.380047 0.499761 0.156484
H17   H     H_    0.577325 0.308808 0.563625 0.119981
H18   H     H_    0.422674 0.691192 0.436375 0.119999
H19   H     H_    0.422675 0.308802 0.436374 0.119042
H20   H     H_    0.577326 0.691198 0.563625 0.119061
N1    N     N_R   0.500278 0.500027 0.852043 -0.469564
N2    N     N_R   0.499694 0.499970 0.147960 -0.469579
N3    N     N_R   0.034323 0.435231 0.499943 -0.235860
N4    N     N_R   0.965677 0.564769 0.500057 -0.235860
N5    N     N_R   0.965679 0.435231 0.500057 -0.235701
N6    N     N_R   0.034321 0.564769 0.499943 -0.235702
N7    N     N_R   0.500000 0.316380 0.500000 -0.168456
N8    N     N_R   0.500000 0.683620 0.500000 -0.168462
N9    N     N_R   0.457370 0.037091 0.464923 -0.235763
N10   N     N_R   0.542630 0.962908 0.535077 -0.235764
N11   N     N_R   0.542630 0.037094 0.535077 -0.235669
N12   N     N_R   0.457370 0.962906 0.464923 -0.235668
O1    O     O_R   0.400150 0.561970 0.500010 -0.586468
O2    O     O_R   0.599850 0.438030 0.499990 -0.586464
O3    O     O_R   0.599850 0.561970 0.499990 -0.586978
O4    O     O_R   0.400150 0.438030 0.500010 -0.586978
O5    O     O_R   0.499980 0.561970 0.417880 -0.586372
O6    O     O_R   0.500020 0.438030 0.582120 -0.586368
O7    O     O_R   0.500020 0.561970 0.582120 -0.586233
O8    O     O_R   0.499980 0.438030 0.417880 -0.586228
O9    O     O_2   0.613322 0.452015 0.851639 -0.536835
O10   O     O_2   0.386679 0.548056 0.148366 -0.536817
O11   O     O_2   0.387230 0.548025 0.850721 -0.534377
O12   O     O_2   0.612715 0.451901 0.149283 -0.534359
H21   H     H_    0.338188 0.570252 0.947709 0.190518
H22   H     H_    0.661777 0.429726 0.052294 0.190518
H23   H     H_    0.498856 0.619966 0.320085 0.159598
H24   H     H_    0.499398 0.619983 0.679903 0.159858
H25   H     H_    0.281625 0.619874 0.499771 0.153378
H26   H     H_    0.718375 0.380126 0.500230 0.153379
H27   H     H_    0.718373 0.619873 0.500230 0.153029
H28   H     H_    0.281627 0.380127 0.499769 0.153030

loop_
_geom_bond_atom_site_label_1
_geom_bond_atom_site_label_2
_ccdc_geom_bond_type
C28   O7    A    
C38   C40   A    
C27   O8    A    
C31   N7    A    
C11   C13   A    
C27   O5    A    
Cu2   O8    S    
C43   C51   A    
C47   C49   A    
C5    H23   S    
C48   C54   A    
C46   O12   S    
C17   C26   A    
C32   C36   A    
C54   H22   S    
C43   O9    S    
C29   N5    A    
C15   C25   A    
C43   N1    A    
C21   H15   S    
C7    C27   S    
Cu1   N8    S    
C35   H1    S    
C51   C56   A    
C34   N8    A    
C45   C47   A    
C15   H25   S    
Cu2   O6    S    
C24   C29   S    
C33   N7    A    
C15   C19   A    
C19   H13   S    
C20   C24   A    
C1    O4    A    
C49   C51   A    
C55   H5    S    
C50   C52   A    
C56   H6    S    
C3    C13   A    
C52   C55   A    
C47   C53   A    
C44   C52   A    
C48   C50   A    
C41   N12   A    
C13   N2    S    
Cu1   O7    S    
C1    O1    A    
Cu1   O3    S    
C30   N6    A    
C3    H7    S    
C18   C25   A    
N3    N5    A    
C39   C42   S    
C54   C56   A    
C53   C55   A    
C16   C26   A    
C46   C48   A    
C23   C30   S    
C44   N2    A    
C4    C6    A    
C5    C7    A    
C19   C23   A    
C45   O11   S    
C6    C8    A    
C3    C5    A    
C17   C21   A    
C35   C39   A    
C9    H9    S    
C31   H17   S    
C36   C40   A    
C16   C20   A    
C32   N8    A    
C6    H24   S    
C2    C26   S    
C14   N1    S    
C2    O2    A    
C9    C11   A    
C45   N1    A    
C10   C12   A    
C40   C41   S    
C12   C14   A    
N4    N6    A    
C8    C28   S    
C31   C35   A    
N9    N12   A    
C22   H16   S    
Cu2   N7    S    
C7    C9    A    
C41   N10   A    
C12   H12   S    
Cu1   O1    S    
C34   C38   A    
C2    O3    A    
C18   H28   S    
C36   H2    S    
C17   H27   S    
C32   H18   S    
C37   H3    S    
C11   H11   S    
C10   H10   S    
C28   O6    A    
C42   N11   A    
C30   N3    A    
C18   C22   A    
Cu2   O4    S    
C29   N4    A    
C37   C39   A    
C34   H20   S    
C4    H8    S    
C44   O10   S    
C33   H19   S    
Cu1   Cu2   S    
C53   H21   S    
C4    C14   A    
C33   C37   A    
C16   H26   S    
N10   N11   A    
C8    C10   A    
C49   C50   A    
Cu1   O5    S    
C21   C24   A    
C22   C23   A    
C20   H14   S    
C42   N9    A    
C46   N2    A    
Cu2   O2    S    
C1    C25   S    
C38   H4    S    
