data_mof_unit_pretest_1407.cif
_audit_creation_date              2012-12-11T15:54:36-0500
_audit_creation_method            fapswitch 2.2
_symmetry_space_group_name_H-M    P1
_symmetry_Int_Tables_number       1
_space_group_crystal_system       triclinic
_cell_length_a                    6.933939
_cell_length_b                    14.833506
_cell_length_c                    15.892446
_cell_angle_alpha                 90.287288
_cell_angle_beta                  89.352262
_cell_angle_gamma                 89.931848
_cell_volume                      1634.48531356

loop_
_atom_site_label
_atom_site_type_symbol
_atom_type_description
_atom_site_fract_x
_atom_site_fract_y
_atom_site_fract_z
_atom_type_partial_charge
O1    O     O_R   0.638180 0.333920 0.163320 -0.502680
O2    O     O_R   0.361820 0.666080 0.836680 -0.502680
O3    O     O_R   0.308470 0.344960 0.336080 -0.547853
O4    O     O_R   0.691530 0.655040 0.663920 -0.547853
O5    O     O_R   0.138140 0.166110 0.336680 -0.562265
O6    O     O_R   0.861860 0.833890 0.663320 -0.562265
C1    C     C_R   0.477267 0.369133 0.363322 0.752908
C2    C     C_R   0.522733 0.630866 0.636678 0.752909
O7    O     O_R   0.308460 0.344950 0.163930 -0.501869
O8    O     O_R   0.691540 0.655050 0.836070 -0.501869
O9    O     O_R   0.138140 0.166100 0.163310 -0.553642
O10   O     O_R   0.861860 0.833900 0.836690 -0.553642
C3    C     C_R   0.478089 0.367183 0.134978 0.885506
C4    C     C_R   0.521911 0.632817 0.865022 0.885505
O11   O     O_R   0.638180 0.333930 0.336700 -0.516888
O12   O     O_R   0.361820 0.666070 0.663300 -0.516888
O13   O     O_3   0.471670 0.191340 0.250000 -0.400520
O14   O     O_3   0.528330 0.808660 0.750000 -0.400520
V1    V     V_3+5 0.196830 0.260900 0.250000 1.598317
V2    V     V_3+5 0.803170 0.739100 0.750000 1.598317
O15   O     O_R   0.808420 0.155070 0.163920 -0.547489
O16   O     O_R   0.191580 0.844930 0.836080 -0.547489
C5    C     C_R   0.978097 0.132783 0.135050 0.705171
C6    C     C_R   0.021903 0.867216 0.864950 0.705172
O17   O     O_R   0.808420 0.155080 0.336070 -0.532524
O18   O     O_R   0.191580 0.844920 0.663930 -0.532525
C7    C     C_R   0.975501 0.136314 0.367529 0.730033
C8    C     C_R   0.024499 0.863686 0.632471 0.730033
V3    V     V_3+5 0.696830 0.239130 0.250000 1.586028
V4    V     V_3+5 0.303170 0.760870 0.750000 1.586028
O19   O     O_3   0.971850 0.308690 0.250010 -0.325346
O20   O     O_3   0.028150 0.691310 0.749990 -0.325346
C9    C     C_R   0.782073 0.160068 0.538709 0.052834
C10   C     C_R   0.217927 0.839932 0.461290 0.052834
C11   C     C_R   0.691761 0.168664 0.617845 0.550865
C12   C     C_R   0.308239 0.831336 0.382155 0.550865
C13   C     C_R   0.718651 0.104389 0.678899 0.594038
C14   C     C_R   0.281349 0.895611 0.321100 0.594038
C15   C     C_R   0.831337 0.029579 0.661574 -0.353364
C16   C     C_R   0.168663 0.970421 0.338426 -0.353364
C17   C     C_R   0.912401 0.013599 0.580320 -0.072342
C18   C     C_R   0.087599 0.986401 0.419680 -0.072341
C19   C     C_R   0.891739 0.080889 0.516920 -0.031367
C20   C     C_R   0.108261 0.919111 0.483080 -0.031367
C21   C     C_R   0.016912 0.932729 0.563920 -0.038141
C22   C     C_R   0.983088 0.067270 0.436080 -0.038142
H1    H     H_    0.854721 0.985158 0.714059 0.168760
H2    H     H_    0.145279 0.014842 0.285941 0.168760
C23   C     C_R   0.179377 0.972209 0.968399 -0.088179
C24   C     C_R   0.820623 0.027791 0.031601 -0.088179
H3    H     H_    0.320224 0.951711 0.945202 0.124083
H4    H     H_    0.679776 0.048289 0.054798 0.124083
C25   C     C_R   0.168940 0.035705 0.033772 -0.088705
C26   C     C_R   0.831060 0.964295 0.966228 -0.088705
H5    H     H_    0.301973 0.062323 0.058779 0.123583
H6    H     H_    0.698027 0.937677 0.941221 0.123583
C27   C     C_R   0.989421 0.064401 0.066272 -0.054825
C28   C     C_R   0.010579 0.935599 0.933728 -0.054825
C29   C     C_R   0.335688 0.447885 0.489964 -0.259530
C30   C     C_R   0.664312 0.552115 0.510036 -0.259530
H7    H     H_    0.208537 0.407849 0.483800 0.164251
H8    H     H_    0.791463 0.592151 0.516200 0.164251
C31   C     C_R   0.347680 0.507774 0.558052 0.653027
C32   C     C_R   0.652320 0.492226 0.441948 0.653027
C33   C     C_R   0.512307 0.561878 0.568343 -0.234998
C34   C     C_R   0.487693 0.438122 0.431657 -0.234998
C35   C     C_R   0.331861 0.492499 0.048962 0.566387
C36   C     C_R   0.668139 0.507500 0.951037 0.566387
C37   C     C_R   0.342135 0.555915 0.983927 0.552967
C38   C     C_R   0.657865 0.444085 0.016073 0.552967
C39   C     C_R   0.510428 0.564482 0.933844 -0.512401
C40   C     C_R   0.489572 0.435518 0.066155 -0.512400
F1    F     F_    0.360501 0.884209 0.243294 -0.626909
F2    F     F_    0.639499 0.115791 0.756706 -0.626909
F3    F     F_    0.187516 0.610339 0.971559 -0.576274
F4    F     F_    0.812484 0.389661 0.028441 -0.576274
N1    N     N_2   0.769590 0.234749 0.484301 -0.503033
H9    H     H_    0.635434 0.264641 0.484742 0.276813
C41   C     C_3   0.922360 0.299237 0.496010 -0.444271
H10   H     H_    0.927105 0.344845 0.441237 0.227921
H11   H     H_    0.064482 0.264690 0.499704 0.172584
H12   H     H_    0.896573 0.339323 0.554357 0.240891
N2    N     N_2   0.230410 0.765251 0.515699 -0.503033
H13   H     H_    0.364566 0.735359 0.515258 0.276812
C42   C     C_3   0.077640 0.700763 0.503990 -0.444271
H14   H     H_    0.072895 0.655155 0.558763 0.227921
H15   H     H_    0.103427 0.660677 0.445643 0.240891
H16   H     H_    0.935518 0.735310 0.500296 0.172584
F5    F     F_    0.586277 0.243293 0.637324 -0.632824
F6    F     F_    0.413723 0.756707 0.362676 -0.632824
F7    F     F_    0.200372 0.510514 0.615002 -0.664543
F8    F     F_    0.799628 0.489486 0.384998 -0.664543
F9    F     F_    0.167627 0.488569 0.096145 -0.554185
F10   F     F_    0.832373 0.511431 0.903855 -0.554185

loop_
_geom_bond_atom_site_label_1
_geom_bond_atom_site_label_2
_ccdc_geom_bond_type
C14   C16   A    
C13   F2    S    
C31   C33   A    
O13   V3    S    
C4    C39   S    
C25   H5    S    
O4    C2    A    
V1    O19   S    
C15   C17   A    
N1    H9    S    
O9    V1    S    
C24   C26   A    
C11   C13   A    
O3    C1    A    
C29   C34   A    
C26   C28   A    
O12   V4    S    
C30   H8    S    
C35   C40   A    
C18   C22   A    
C37   C39   A    
C16   H2    S    
O7    C3    A    
C9    C11   A    
O5    C7    A    
O7    V1    S    
O6    C8    A    
O8    V2    S    
C23   H3    S    
C24   H4    S    
O3    V1    S    
O14   V4    S    
C10   C12   A    
C16   C18   A    
C2    C33   S    
C2    O12   A    
C17   C19   A    
C18   C20   A    
O11   V3    S    
N1    C41   S    
O17   V3    S    
C26   H6    S    
C8    C21   S    
C29   H7    S    
C42   H15   S    
C9    C19   A    
C10   C20   A    
O8    C4    A    
C41   H11   S    
C25   C27   A    
C1    O11   A    
C42   H14   S    
O15   V3    S    
C36   F10   S    
C23   C28   A    
C35   C37   A    
C32   C34   A    
N2    H13   S    
V3    O19   S    
O10   V2    S    
O1    V3    S    
C11   F5    S    
C7    C22   S    
C36   C38   A    
N2    C42   S    
C30   C33   A    
O18   V4    S    
O15   C5    A    
C38   F4    S    
O16   C6    A    
O1    C3    A    
C10   N2    S    
C32   F8    S    
C20   C21   A    
C15   H1    S    
V2    O20   S    
C42   H16   S    
C12   F6    S    
C5    C27   S    
O16   V4    S    
C24   C27   A    
O18   C8    A    
C41   H12   S    
O5    V1    S    
C3    C40   S    
O17   C7    A    
O6    V2    S    
O10   C6    A    
C29   C31   A    
O2    V4    S    
C30   C32   A    
C12   C14   A    
C13   C15   A    
C1    C34   S    
V4    O20   S    
C9    N1    S    
C36   C39   A    
C23   C25   A    
O9    C5    A    
O13   V1    S    
C37   F3    S    
O14   V2    S    
O2    C4    A    
C19   C22   A    
C41   H10   S    
O4    V2    S    
C6    C28   S    
C31   F7    S    
C35   F9    S    
C17   C21   A    
C38   C40   A    
C14   F1    S    
