data_mof_unit_pretest_770.cif
_audit_creation_date              2012-12-10T16:47:31-0500
_audit_creation_method            fapswitch 2.2
_symmetry_space_group_name_H-M    P1
_symmetry_Int_Tables_number       1
_space_group_crystal_system       triclinic
_cell_length_a                    10.591509
_cell_length_b                    8.734842
_cell_length_c                    7.443783
_cell_angle_alpha                 102.158889
_cell_angle_beta                  94.310347
_cell_angle_gamma                 92.428773
_cell_volume                      670.112176915

loop_
_atom_site_label
_atom_site_type_symbol
_atom_type_description
_atom_site_fract_x
_atom_site_fract_y
_atom_site_fract_z
_atom_type_partial_charge
C1    C     C_R   0.491843 0.200804 0.455669 0.878019
C2    C     C_3   0.122784 0.500367 0.504696 0.031101
C3    C     C_3   0.967100 0.636477 0.600764 -0.171921
C4    C     C_3   0.032900 0.363524 0.399236 -0.171922
C5    C     C_2   0.468510 0.035839 0.439279 -0.024236
C6    C     C_2   0.531503 0.964160 0.560714 -0.024238
C7    C     C_3   0.362259 0.956008 0.297116 -0.859719
C8    C     C_3   0.637764 0.043991 0.702872 -0.859693
C9    C     C_R   0.508162 0.799196 0.544329 0.878011
C10   C     C_R   0.259486 0.499961 0.502050 0.773247
C11   C     C_R   0.740514 0.500039 0.497949 0.773238
C12   C     C_3   0.048668 0.517395 0.675944 -0.137856
C13   C     C_3   0.951332 0.482605 0.324056 -0.137856
C14   C     C_3   0.956444 0.380552 0.570479 -0.169726
C15   C     C_3   0.043556 0.619448 0.429521 -0.169726
C16   C     C_3   0.877216 0.499634 0.495304 0.031104
Cu1   Cu    Cu3+1 0.514140 0.517380 0.684380 0.935524
Cu2   Cu    Cu3+1 0.485860 0.482620 0.315620 0.935522
H1    H     H_    0.917487 0.282595 0.627558 0.123521
H2    H     H_    0.401955 0.879537 0.178617 0.267012
H3    H     H_    0.295013 0.886511 0.360599 0.219181
H4    H     H_    0.693977 0.957055 0.758349 0.219786
H5    H     H_    0.704997 0.113515 0.639390 0.219182
H6    H     H_    0.598069 0.120438 0.821394 0.267003
H7    H     H_    0.082514 0.717405 0.372442 0.123522
H8    H     H_    0.091215 0.531575 0.819869 0.139392
H9    H     H_    0.908785 0.468426 0.180131 0.139392
H10   H     H_    0.936680 0.748251 0.682476 0.124274
H11   H     H_    0.063320 0.251750 0.317524 0.124276
H12   H     H_    0.400652 0.379426 0.949019 0.225861
H13   H     H_    0.599349 0.620572 0.050980 0.225860
H14   H     H_    0.306062 0.042933 0.241598 0.219800
N1    N     N_2   0.464560 0.456420 0.038510 -0.219908
N2    N     N_2   0.535440 0.543580 0.961490 -0.219909
O1    O     O_R   0.509190 0.286130 0.619780 -0.592311
O2    O     O_R   0.490810 0.713870 0.380220 -0.592316
O3    O     O_R   0.485310 0.256770 0.308360 -0.582017
O4    O     O_R   0.514690 0.743230 0.691640 -0.582013
O5    O     O_R   0.328790 0.514640 0.655680 -0.593962
O6    O     O_R   0.671210 0.485360 0.344320 -0.593963
O7    O     O_R   0.304910 0.485280 0.344260 -0.585266
O8    O     O_R   0.695090 0.514720 0.655740 -0.585267

loop_
_geom_bond_atom_site_label_1
_geom_bond_atom_site_label_2
_ccdc_geom_bond_type
C9    O2    A    
C8    H4    S    
C3    C12   S    
C11   C16   S    
C2    C4    S    
C4    H11   S    
C1    O3    A    
C2    C12   S    
C6    C9    S    
N1    N2    D    
H13   N2    S    
C10   O7    A    
C2    C15   S    
C5    C6    D    
C1    C5    S    
C3    H10   S    
C8    H6    S    
Cu2   O3    S    
C12   C14   S    
Cu1   Cu2   S    
Cu1   O4    S    
C13   C15   S    
C4    C14   S    
C11   O6    A    
Cu2   N1    S    
C14   C16   S    
C15   H7    S    
Cu1   N2    S    
C2    C10   S    
C8    H5    S    
C3    C15   S    
C1    O1    A    
C11   O8    A    
C7    H2    S    
Cu1   O5    S    
C13   C16   S    
C4    C13   S    
C5    C7    S    
Cu2   O6    S    
Cu1   O8    S    
C9    O4    A    
C6    C8    S    
C7    H14   S    
Cu1   O1    S    
H12   N1    S    
C7    H3    S    
Cu2   O2    S    
C14   H1    S    
C13   H9    S    
C3    C16   S    
Cu2   O7    S    
C12   H8    S    
C10   O5    A    
