data_mof_unit_pretest_675.cif
_audit_creation_date              2012-12-10T18:12:28-0500
_audit_creation_method            fapswitch 2.2
_symmetry_space_group_name_H-M    P1
_symmetry_Int_Tables_number       1
_space_group_crystal_system       triclinic
_cell_length_a                    9.439865
_cell_length_b                    10.731121
_cell_length_c                    17.193408
_cell_angle_alpha                 89.761453
_cell_angle_beta                  85.528869
_cell_angle_gamma                 90.009309
_cell_volume                      1736.3822678

loop_
_atom_site_label
_atom_site_type_symbol
_atom_type_description
_atom_site_fract_x
_atom_site_fract_y
_atom_site_fract_z
_atom_type_partial_charge
C1    C     C_R   0.500573 0.740052 0.498411 0.804242
C2    C     C_R   0.358509 0.532212 0.780995 -0.243817
C3    C     C_R   0.433605 0.554120 0.141201 -0.313883
C4    C     C_R   0.419950 0.556084 0.222895 0.424773
C5    C     C_R   0.656935 0.465981 0.223535 -0.293623
C6    C     C_R   0.669224 0.464853 0.142447 -0.161247
C7    C     C_R   0.556483 0.506224 0.101110 0.017849
C8    C     C_2   0.454913 0.449309 0.980710 -0.351831
C9    C     C_2   0.565831 0.496408 0.015459 0.428236
C10   C     C_R   0.531731 0.508908 0.264295 -0.081000
C11   C     C_3   0.409254 0.927391 0.432993 -0.486775
C12   C     C_R   0.481088 0.496725 0.649987 0.797303
C13   C     C_3   0.415464 0.071555 0.428350 0.325278
C14   C     C_3   0.440901 0.927866 0.577796 0.336757
C15   C     C_3   0.655617 0.928611 0.479580 -0.359809
C16   C     C_3   0.501828 0.878046 0.497360 0.038537
C17   C     C_3   0.501726 0.121658 0.495573 0.038397
C18   C     C_3   0.433935 0.071679 0.574557 -0.520838
C19   C     C_3   0.656392 0.071161 0.483944 -0.327512
C20   C     C_3   0.927168 0.441007 0.426410 0.378639
C21   C     C_3   0.094499 0.435930 0.428147 -0.373187
C22   C     C_3   0.916545 0.627413 0.501294 -0.360454
C23   C     C_R   0.500554 0.259881 0.497613 0.791552
C24   C     C_3   0.904353 0.431933 0.566774 -0.290324
C25   C     C_3   0.084207 0.626432 0.500487 0.290993
C26   C     C_3   0.071974 0.429911 0.568584 0.482399
C27   C     C_R   0.519171 0.503418 0.349759 0.812519
C28   C     C_R   0.470982 0.480093 0.734340 -0.128496
C29   C     C_R   0.572165 0.406107 0.768096 -0.223536
C30   C     C_R   0.563453 0.385284 0.848235 0.505515
C31   C     C_R   0.454895 0.445617 0.895649 0.096693
C32   C     C_R   0.350741 0.515248 0.861359 -0.213313
Cu1   Cu    Cu3+1 0.357600 0.500140 0.499960 0.980380
Cu2   Cu    Cu3+1 0.642400 0.499860 0.500040 0.940741
H1    H     H_    0.656535 0.361647 0.731842 0.150385
H2    H     H_    0.765060 0.428453 0.111958 0.167934
H3    H     H_    0.296872 0.897486 0.445837 0.127058
H4    H     H_    0.446081 0.885873 0.375683 0.209704
H5    H     H_    0.303618 0.106014 0.437648 0.076923
H6    H     H_    0.329510 0.892877 0.588497 0.070956
H7    H     H_    0.320908 0.100936 0.581912 0.155694
H8    H     H_    0.728463 0.891070 0.521853 0.197891
H9    H     H_    0.697831 0.898541 0.420337 0.164998
H10   H     H_    0.711287 0.109427 0.429429 0.224485
H11   H     H_    0.718158 0.100617 0.533353 0.165926
H12   H     H_    0.488572 0.112749 0.623549 0.191872
H13   H     H_    0.904413 0.499191 0.375100 0.120382
H14   H     H_    0.134084 0.338487 0.424323 0.191546
H15   H     H_    0.141551 0.483529 0.374872 0.179815
H16   H     H_    0.884978 0.683170 0.450741 0.122820
H17   H     H_    0.128515 0.677012 0.447134 0.115308
H18   H     H_    0.859611 0.476751 0.621425 0.136911
H19   H     H_    0.744148 0.430203 0.254412 0.189388
H20   H     H_    0.859147 0.336464 0.567952 0.163439
H21   H     H_    0.098026 0.480891 0.621812 0.121601
H22   H     H_    0.869426 0.675725 0.554359 0.202959
H23   H     H_    0.266456 0.560583 0.897156 0.151884
H24   H     H_    0.348481 0.590094 0.108757 0.122674
H25   H     H_    0.277750 0.587020 0.755354 0.157639
H26   H     H_    0.356552 0.425923 0.014744 0.131728
N1    N     N_3   0.856560 0.499750 0.498270 -0.159603
N2    N     N_3   0.143860 0.496700 0.498910 -0.155778
O1    O     O_R   0.379740 0.682430 0.499960 -0.559542
O2    O     O_R   0.620260 0.682190 0.500020 -0.594034
O3    O     O_R   0.365800 0.500150 0.613560 -0.562350
O4    O     O_R   0.606310 0.499910 0.613620 -0.591391
O5    O     O_R   0.379740 0.317810 0.499980 -0.561864
O6    O     O_R   0.620260 0.317570 0.500040 -0.552847
O7    O     O_R   0.393690 0.500090 0.386380 -0.563673
O8    O     O_R   0.634200 0.499850 0.386440 -0.572654
O9    O     O_3   0.483429 0.106465 0.354658 -0.607334
C33   C     C_3   0.402639 0.193265 0.314627 0.052723
H27   H     H_    0.476939 0.243087 0.271989 0.176750
H28   H     H_    0.352624 0.265263 0.353971 0.143359
C34   C     C_3   0.290635 0.127459 0.269689 -0.372435
H29   H     H_    0.343693 0.059088 0.228694 0.232667
H30   H     H_    0.214710 0.076313 0.310888 0.208114
C35   C     C_3   0.208262 0.221201 0.223705 -0.891426
H31   H     H_    0.152309 0.289112 0.263881 0.261354
H32   H     H_    0.128173 0.171384 0.191449 0.256390
H33   H     H_    0.281530 0.272311 0.181026 0.256962
O10   O     O_3   0.300302 0.605328 0.262874 -0.764907
H34   H     H_    0.232818 0.633376 0.225004 0.309175
O11   O     O_3   0.531370 0.890806 0.636250 -0.610642
C36   C     C_3   0.455770 0.830768 0.700047 0.060815
H35   H     H_    0.533781 0.776761 0.731700 0.174840
H36   H     H_    0.377442 0.762034 0.680865 0.141172
C37   C     C_3   0.384224 0.926467 0.756084 -0.363535
H37   H     H_    0.465238 0.993031 0.774567 0.236494
H38   H     H_    0.304066 0.979449 0.725636 0.210940
C38   C     C_3   0.310770 0.863758 0.828132 -0.922517
H39   H     H_    0.225759 0.800260 0.811038 0.253956
H40   H     H_    0.261801 0.935824 0.867831 0.259407
H41   H     H_    0.388817 0.809945 0.859881 0.262631
O12   O     O_3   0.869919 0.322768 0.412857 -0.717399
H42   H     H_    0.912260 0.261560 0.447628 0.313034
O13   O     O_3   0.123038 0.305552 0.573228 -0.607564
C39   C     C_3   0.080088 0.247569 0.646006 -0.039248
H43   H     H_    0.077104 0.145421 0.636106 0.163234
H44   H     H_    0.971355 0.273862 0.669707 0.128712
C40   C     C_3   0.184280 0.274046 0.707831 -0.332070
H45   H     H_    0.292670 0.242767 0.687282 0.215294
H46   H     H_    0.187180 0.375226 0.718637 0.224876
C41   C     C_3   0.138057 0.210159 0.785180 -0.897261
H47   H     H_    0.037250 0.251704 0.810770 0.277744
H48   H     H_    0.221171 0.223214 0.826730 0.259193
H49   H     H_    0.121421 0.108938 0.776748 0.252829
O14   O     O_3   0.124790 0.690361 0.566495 -0.741156
H50   H     H_    0.105201 0.780069 0.557825 0.291662
O15   O     O_3   0.691416 0.524488 0.971337 -0.586944
C42   C     C_3   0.723810 0.651945 0.979473 0.063826
H51   H     H_    0.761622 0.669568 0.038164 0.146291
H52   H     H_    0.629238 0.711570 0.971043 0.135673
C43   C     C_3   0.841756 0.687349 0.917321 -0.317960
H53   H     H_    0.937425 0.629544 0.925071 0.220416
H54   H     H_    0.805539 0.668304 0.858509 0.227640
C44   C     C_3   0.881375 0.824815 0.922288 -0.928212
H55   H     H_    0.787687 0.884438 0.913544 0.264846
H56   H     H_    0.966464 0.847403 0.876125 0.259147
H57   H     H_    0.921008 0.845427 0.980021 0.256347
O16   O     O_3   0.662282 0.306393 0.877364 -0.730030
H58   H     H_    0.629934 0.282383 0.931504 0.332790

loop_
_geom_bond_atom_site_label_1
_geom_bond_atom_site_label_2
_ccdc_geom_bond_type
C10   C27   S    
C24   H18   S    
C40   H45   S    
C14   C18   S    
O12   H42   S    
C14   O11   S    
C26   H21   S    
Cu2   O4    S    
C41   H48   S    
O13   C39   S    
Cu1   O3    S    
C36   H35   S    
C15   C19   S    
C17   C23   S    
C12   C28   S    
C5    H19   S    
C28   C29   A    
C24   C26   S    
C3    C7    A    
C44   H56   S    
C5    C6    A    
C35   H32   S    
C24   H20   S    
C15   C16   S    
C18   H12   S    
O14   H50   S    
C2    C32   A    
C23   O5    A    
C20   N1    S    
C11   H3    S    
O15   C42   S    
C42   H51   S    
Cu1   N2    S    
C22   C25   S    
C30   O16   S    
Cu2   O8    S    
C27   O7    A    
Cu1   O7    S    
C22   H16   S    
C21   H14   S    
C40   H46   S    
C32   H23   S    
C33   C34   S    
C1    O1    A    
C21   H15   S    
C41   H47   S    
C17   C18   S    
C36   H36   S    
C20   H13   S    
O11   C36   S    
C33   H28   S    
C18   H7    S    
Cu2   O6    S    
C38   H39   S    
C2    H25   S    
C8    C9    D    
C22   H22   S    
C13   O9    S    
C12   O4    A    
Cu2   N1    S    
C23   O6    A    
C11   H4    S    
C34   H29   S    
C25   H17   S    
C29   C30   A    
C38   H40   S    
C11   C16   S    
C31   C32   A    
C37   C38   S    
Cu1   O1    S    
Cu2   O2    S    
Cu1   Cu2   S    
C21   N2    S    
C42   H52   S    
C1    C16   S    
C20   C21   S    
C34   H30   S    
O16   H58   S    
C27   O8    A    
C24   N1    S    
C20   O12   S    
C37   H38   S    
O10   H34   S    
C40   C41   S    
C39   H44   S    
C14   C16   S    
C44   H57   S    
C4    C10   A    
C3    C4    A    
C1    O2    A    
C19   H10   S    
Cu1   O5    S    
C36   C37   S    
C9    O15   S    
C7    C9    S    
C35   H31   S    
C8    C31   S    
C15   H8    S    
C33   H27   S    
C43   H54   S    
C19   H11   S    
C43   H53   S    
C6    C7    A    
C39   C40   S    
C12   O3    A    
C29   H1    S    
C13   C17   S    
C26   N2    S    
C15   H9    S    
C5    C10   A    
C44   H55   S    
C8    H26   S    
C38   H41   S    
C11   C13   S    
C35   H33   S    
C30   C31   A    
C17   C19   S    
C6    H2    S    
C42   C43   S    
C25   N2    S    
C34   C35   S    
C13   H5    S    
C43   C44   S    
C26   O13   S    
C14   H6    S    
C3    H24   S    
O9    C33   S    
C4    O10   S    
C37   H37   S    
C39   H43   S    
C2    C28   A    
C41   H49   S    
C25   O14   S    
C22   N1    S    
