data_mof_unit_pretest_1641.cif
_audit_creation_date              2012-12-10T21:26:47-0500
_audit_creation_method            fapswitch 2.2
_symmetry_space_group_name_H-M    P1
_symmetry_Int_Tables_number       1
_space_group_crystal_system       triclinic
_cell_length_a                    10.733609
_cell_length_b                    16.105059
_cell_length_c                    16.860261
_cell_angle_alpha                 87.820912
_cell_angle_beta                  90.113808
_cell_angle_gamma                 91.187158
_cell_volume                      2911.82099146

loop_
_atom_site_label
_atom_site_type_symbol
_atom_type_description
_atom_site_fract_x
_atom_site_fract_y
_atom_site_fract_z
_atom_type_partial_charge
C1    C     C_R   0.495682 0.489017 0.652805 0.929369
C2    C     C_R   0.498740 0.517638 0.260949 -0.064721
C3    C     C_R   0.489105 0.595272 0.221117 -0.336267
C4    C     C_R   0.737511 0.499542 0.494032 0.852732
C5    C     C_R   0.480101 0.600188 0.138177 0.469879
C6    C     C_R   0.446901 0.763467 0.457124 -0.092295
C7    C     C_R   0.448537 0.850403 0.459329 -0.358442
C8    C     C_R   0.518536 0.890529 0.518001 0.264803
C9    C     C_R   0.586172 0.841403 0.573042 0.242487
C10   C     C_R   0.587530 0.753352 0.565708 0.450355
C11   C     C_R   0.579025 0.151245 0.521514 0.191307
C12   C     C_R   0.433102 0.552069 0.776539 -0.289925
C13   C     C_R   0.573114 0.237635 0.529276 0.707963
C14   C     C_R   0.485194 0.109594 0.477025 0.086165
C15   C     C_R   0.397299 0.245414 0.444788 -0.293927
C16   C     C_R   0.501081 0.511030 0.347017 0.893552
C17   C     C_R   0.394926 0.158173 0.437503 0.350195
C18   C     C_R   0.262361 0.501232 0.500195 0.928927
C19   C     C_2   0.069170 0.570738 0.475064 0.511445
C20   C     C_2   0.130553 0.504762 0.504436 -0.272616
C21   C     C_2   0.934892 0.569554 0.483540 -0.325192
C22   C     C_2   0.867796 0.499694 0.473430 0.246065
C23   C     C_R   0.410560 0.546867 0.857252 0.678476
C24   C     C_R   0.474563 0.482463 0.737678 -0.144309
C25   C     C_R   0.432504 0.471852 0.900228 0.181974
C26   C     C_R   0.466404 0.401193 0.860681 -0.255649
C27   C     C_R   0.487872 0.406322 0.779492 -0.178766
C28   C     C_R   0.493929 0.449427 0.136654 -0.267097
C29   C     C_R   0.502876 0.445064 0.218196 -0.207179
C30   C     C_R   0.479639 0.526748 0.096281 0.307587
F1    F     F_    0.369467 0.615043 0.893452 -0.612114
F2    F     F_    0.660520 0.276945 0.573195 -0.601726
H1    H     H_    0.417547 0.610553 0.744511 0.206171
H2    H     H_    0.517311 0.351533 0.749872 0.207172
H3    H     H_    0.486809 0.651555 0.254261 0.167153
H4    H     H_    0.068359 0.680104 0.422809 0.336604
H5    H     H_    0.471156 0.720734 0.134952 0.337877
H6    H     H_    0.704102 0.066954 0.519442 0.360092
H7    H     H_    0.655393 0.841747 0.679519 0.353093
H8    H     H_    0.735514 0.735172 0.629631 0.326673
H9    H     H_    0.249512 0.161524 0.368721 0.342616
H10   H     H_    0.856151 0.388152 0.431140 0.364108
H11   H     H_    0.329526 0.283419 0.413717 0.193501
H12   H     H_    0.393199 0.885520 0.416654 0.215389
H13   H     H_    0.082997 0.452003 0.533945 0.161358
H14   H     H_    0.390820 0.732885 0.413066 0.195219
H15   H     H_    0.892866 0.626355 0.502444 0.159279
H16   H     H_    0.512217 0.384540 0.247654 0.184213
H17   H     H_    0.498303 0.392164 0.105194 0.181601
H18   H     H_    0.481905 0.343201 0.893532 0.184835
N1    N     N_2   0.432160 0.466995 0.983535 -0.182434
N2    N     N_2   0.469928 0.532615 0.013022 -0.056549
N3    N     N_R   0.515110 0.716920 0.509720 -0.114123
N4    N     N_2   0.520228 0.979001 0.526308 -0.073034
N5    N     N_2   0.479820 0.021054 0.468205 -0.108743
N6    N     N_R   0.484890 0.283060 0.490290 -0.187143
O1    O     O_R   0.494590 0.422540 0.612660 -0.587612
O2    O     O_3   0.469500 0.675360 0.096778 -0.697840
O3    O     O_3   0.679827 0.111413 0.554986 -0.649188
O4    O     O_3   0.647675 0.881105 0.633315 -0.713252
O5    O     O_3   0.661185 0.702789 0.613017 -0.730368
O6    O     O_3   0.305624 0.119064 0.392277 -0.712121
O7    O     O_3   0.920559 0.432086 0.438524 -0.759686
O8    O     O_R   0.504290 0.561850 0.618900 -0.569700
O9    O     O_R   0.676080 0.430360 0.496880 -0.571636
O10   O     O_R   0.685780 0.569670 0.503120 -0.597006
O11   O     O_R   0.495710 0.438150 0.381100 -0.631042
O12   O     O_R   0.505410 0.577460 0.387340 -0.628791
O13   O     O_R   0.314220 0.430330 0.496880 -0.623189
O14   O     O_R   0.323920 0.569640 0.503120 -0.565091
O15   O     O_3   0.131210 0.639083 0.440582 -0.749490
Zn1   Zn    Zn3+2 0.493520 0.406980 0.495830 1.013978
Zn2   Zn    Zn3+2 0.506480 0.593020 0.504170 1.024047

loop_
_geom_bond_atom_site_label_1
_geom_bond_atom_site_label_2
_ccdc_geom_bond_type
C18   O14   A    
O13   Zn1   S    
O8    Zn2   S    
C25   N1    S    
C6    C7    A    
C16   O12   A    
C1    O1    A    
C17   O6    S    
O9    Zn1   S    
C4    C22   S    
C9    C10   A    
C12   C24   A    
C13   F2    S    
C19   O15   S    
H5    O2    S    
C14   C17   A    
C24   C27   A    
C3    H3    S    
C13   N6    A    
C15   N6    A    
C9    O4    S    
O14   Zn2   S    
C28   C30   A    
C14   N5    S    
C12   H1    S    
C15   H11   S    
C7    C8    A    
O1    Zn1   S    
C16   O11   A    
C21   C22   D    
C25   C26   A    
C4    O10   A    
C11   C13   A    
C12   C23   A    
C26   C27   A    
C5    O2    S    
C1    C24   S    
C2    C29   A    
C11   O3    S    
H7    O4    S    
H9    O6    S    
C28   C29   A    
C19   C21   S    
C2    C3    A    
C18   C20   S    
C26   H18   S    
C27   H2    S    
C6    H14   S    
C4    O9    A    
C11   C14   A    
C21   H15   S    
C10   O5    S    
C6    N3    A    
C19   C20   D    
H6    O3    S    
O12   Zn2   S    
C1    O8    A    
C23   C25   A    
C2    C16   S    
H4    O15   S    
O11   Zn1   S    
C5    C30   A    
C20   H13   S    
C8    N4    S    
C15   C17   A    
C10   N3    A    
C30   N2    S    
N4    N5    D    
C29   H16   S    
N6    Zn1   S    
C22   O7    S    
C7    H12   S    
O10   Zn2   S    
C18   O13   A    
H10   O7    S    
N3    Zn2   S    
H8    O5    S    
N1    N2    D    
C8    C9    A    
C3    C5    A    
C28   H17   S    
C23   F1    S    
