data_mof_unit_pretest_351.cif
_audit_creation_date              2012-12-11T16:27:32-0500
_audit_creation_method            fapswitch 2.2
_symmetry_space_group_name_H-M    P1
_symmetry_Int_Tables_number       1
_space_group_crystal_system       triclinic
_cell_length_a                    21.829263
_cell_length_b                    6.959052
_cell_length_c                    14.797444
_cell_angle_alpha                 90.743115
_cell_angle_beta                  104.998613
_cell_angle_gamma                 90.443377
_cell_volume                      2170.98724364

loop_
_atom_site_label
_atom_site_type_symbol
_atom_type_description
_atom_site_fract_x
_atom_site_fract_y
_atom_site_fract_z
_atom_type_partial_charge
O1    O     O_R   0.835850 0.638310 0.002120 -0.536224
O2    O     O_R   0.164150 0.361690 0.997880 -0.519558
O3    O     O_R   0.664150 0.138310 0.997880 -0.539383
O4    O     O_R   0.335850 0.861690 0.002120 -0.538954
O5    O     O_R   0.717530 0.306070 0.861970 -0.511718
O6    O     O_R   0.282470 0.693930 0.138030 -0.521505
O7    O     O_R   0.782470 0.806070 0.138030 -0.506487
O8    O     O_R   0.217530 0.193930 0.861970 -0.513656
C1    C     C_R   0.704562 0.475789 0.824994 0.910426
C2    C     C_R   0.296646 0.525556 0.174818 0.918268
C3    C     C_R   0.795886 0.979959 0.174827 0.925584
C4    C     C_R   0.205215 0.020067 0.824853 0.924883
O9    O     O_R   0.838690 0.308440 0.993250 -0.517725
O10   O     O_R   0.161310 0.691560 0.006750 -0.534367
O11   O     O_R   0.661310 0.808440 0.006750 -0.522624
O12   O     O_R   0.338690 0.191560 0.993250 -0.521973
O13   O     O_R   0.786170 0.140510 0.130090 -0.524797
O14   O     O_R   0.213830 0.859490 0.869910 -0.519724
O15   O     O_R   0.713830 0.640510 0.869910 -0.523595
O16   O     O_R   0.286170 0.359490 0.130090 -0.511369
C5    C     C_R   0.864571 0.476517 0.994339 0.802027
C6    C     C_R   0.134587 0.521428 0.002944 0.805426
C7    C     C_R   0.634994 0.976155 0.004358 0.801374
C8    C     C_R   0.364896 0.023535 0.995236 0.801921
O17   O     O_3   0.732630 0.472520 0.044740 -0.367795
O18   O     O_3   0.267370 0.527480 0.955260 -0.370687
O19   O     O_3   0.767370 0.972520 0.955260 -0.362395
O20   O     O_3   0.232630 0.027480 0.044740 -0.357629
V1    V     V_3+5 0.753220 0.196740 0.991700 1.769137
V2    V     V_3+5 0.246780 0.803260 0.008300 1.760512
V3    V     V_3+5 0.746780 0.696740 0.008300 1.762983
V4    V     V_3+5 0.253220 0.303260 0.991700 1.777254
C9    C     C_R   0.532957 0.923821 0.826956 0.238066
C10   C     C_R   0.466210 0.056864 0.173718 0.254538
C11   C     C_R   0.965583 0.476772 0.174368 0.253878
C12   C     C_R   0.029730 0.553747 0.825033 0.265638
C13   C     C_R   0.484086 0.883316 0.747143 0.605518
C14   C     C_R   0.514695 0.093751 0.254455 0.596566
C15   C     C_R   0.013745 0.492983 0.257139 0.589500
C16   C     C_R   0.982965 0.526160 0.741264 0.613105
C17   C     C_R   0.422564 0.931376 0.744713 0.662861
C18   C     C_R   0.576742 0.055096 0.255910 0.660265
C19   C     C_R   0.076050 0.466737 0.256117 0.668197
C20   C     C_R   0.924399 0.452586 0.741281 0.629803
C21   C     C_R   0.408531 0.009623 0.823847 0.178176
C22   C     C_R   0.591329 0.983812 0.175876 0.191297
C23   C     C_R   0.091605 0.436484 0.171677 0.187019
C24   C     C_R   0.909822 0.412950 0.825092 0.203980
C25   C     C_R   0.453177 0.998532 0.912884 -0.173539
C26   C     C_R   0.546637 0.996828 0.086977 -0.176158
C27   C     C_R   0.046511 0.473550 0.085100 -0.166799
C28   C     C_R   0.952756 0.466806 0.912607 -0.175839
C29   C     C_R   0.518496 0.967600 0.914484 -0.129174
C30   C     C_R   0.481149 0.024204 0.085560 -0.123096
C31   C     C_R   0.980697 0.478890 0.085247 -0.117318
C32   C     C_R   0.017005 0.513349 0.913402 -0.122857
C33   C     C_R   0.434068 0.018845 0.998012 0.031106
C34   C     C_R   0.565773 0.978824 0.001753 0.029160
C35   C     C_R   0.065206 0.506243 0.000375 0.030579
C36   C     C_R   0.933539 0.476274 0.997737 0.032787
C37   C     C_R   0.176176 0.998335 0.723662 -0.344668
C38   C     C_R   0.826932 0.002217 0.275340 -0.352725
C39   C     C_R   0.328834 0.524566 0.275328 -0.375926
C40   C     C_R   0.676751 0.482887 0.723453 -0.358632
C41   C     C_R   0.184960 0.897843 0.570858 0.779030
C42   C     C_R   0.818562 0.086426 0.429954 0.785842
C43   C     C_R   0.319890 0.481787 0.432681 0.784556
C44   C     C_R   0.690820 0.561284 0.571713 0.782309
C45   C     C_R   0.210269 0.909535 0.667098 0.567789
C46   C     C_R   0.792094 0.076023 0.334346 0.565152
C47   C     C_R   0.292544 0.528197 0.340221 0.567969
C48   C     C_R   0.715941 0.533303 0.666514 0.560969
C49   C     C_R   0.111712 0.039927 0.686155 0.457510
C50   C     C_R   0.893017 0.978658 0.309426 0.447546
C51   C     C_R   0.395651 0.518586 0.306466 0.470184
C52   C     C_R   0.610828 0.458684 0.685165 0.461729
C53   C     C_R   0.081553 0.995212 0.590309 -0.059776
C54   C     C_R   0.923475 0.014038 0.406783 -0.058462
C55   C     C_R   0.425498 0.501646 0.404598 -0.047514
C56   C     C_R   0.584266 0.475385 0.585983 -0.054252
C57   C     C_R   0.121732 0.950405 0.531544 -0.421393
C58   C     C_R   0.882863 0.043612 0.467091 -0.425277
C59   C     C_R   0.385627 0.454399 0.463508 -0.426340
C60   C     C_R   0.625155 0.541878 0.531679 -0.413405
C61   C     C_R   0.014352 0.000976 0.548661 -0.116983
C62   C     C_R   0.990986 0.010456 0.448838 -0.111344
C63   C     C_R   0.492529 0.518505 0.447365 -0.083877
C64   C     C_R   0.518258 0.446039 0.539342 -0.093737
C65   C     C_R   0.036651 0.023183 0.396691 0.672126
C66   C     C_R   0.969621 0.985178 0.602100 0.672357
C67   C     C_R   0.476862 0.343941 0.580097 0.680270
C68   C     C_R   0.534080 0.615279 0.404816 0.657732
C69   C     C_R   0.099124 0.971585 0.435026 0.735450
C70   C     C_R   0.906078 0.020211 0.563360 0.749075
C71   C     C_R   0.411803 0.368011 0.549411 0.721878
C72   C     C_R   0.599222 0.608234 0.441103 0.726591
F1    F     F_    0.621249 0.061767 0.339136 -0.486820
F2    F     F_    0.377969 0.922655 0.661600 -0.478823
F3    F     F_    0.882663 0.408557 0.658131 -0.509499
F4    F     F_    0.120028 0.443850 0.338799 -0.493592
Cl1   Cl    Cl    0.608824 0.931250 0.805279 -0.506693
Cl2   Cl    Cl    0.390143 0.040890 0.194762 -0.513301
Cl3   Cl    Cl    0.889449 0.444222 0.193340 -0.519163
Cl4   Cl    Cl    0.102491 0.630983 0.808296 -0.523068
F5    F     F_    0.497242 0.821832 0.666730 -0.577061
F6    F     F_    0.500863 0.140669 0.336315 -0.591708
F7    F     F_    0.999497 0.507803 0.341108 -0.578977
F8    F     F_    0.996722 0.550192 0.657571 -0.570029
Cl5   Cl    Cl    0.343966 0.167736 0.801236 -0.464898
Cl6   Cl    Cl    0.655970 0.826059 0.197025 -0.451187
Cl7   Cl    Cl    0.158551 0.291918 0.180142 -0.457575
Cl8   Cl    Cl    0.846718 0.247140 0.813249 -0.433113
F9    F     F_    0.139205 0.965665 0.378443 -0.509760
F10   F     F_    0.866050 0.011820 0.619957 -0.496216
F11   F     F_    0.374159 0.289922 0.599572 -0.508095
F12   F     F_    0.636542 0.688722 0.391103 -0.500207
Cl9   Cl    Cl    0.931550 0.890265 0.226575 -0.555296
Cl10  Cl    Cl    0.074817 0.169309 0.759766 -0.559001
Cl11  Cl    Cl    0.564375 0.455343 0.767765 -0.552061
Cl12  Cl    Cl    0.437016 0.502182 0.217984 -0.566357
F13   F     F_    0.732105 0.138128 0.299260 -0.563400
F14   F     F_    0.268681 0.837791 0.704913 -0.564395
F15   F     F_    0.778249 0.573150 0.704531 -0.573593
F16   F     F_    0.230009 0.568997 0.313166 -0.537768
F17   F     F_    0.222090 0.832104 0.516575 -0.473846
F18   F     F_    0.781199 0.141589 0.485997 -0.481185
F19   F     F_    0.281828 0.461819 0.491578 -0.472226
F20   F     F_    0.730929 0.618593 0.520462 -0.486897
F21   F     F_    0.024435 0.109870 0.313123 -0.615559
F22   F     F_    0.985067 0.917302 0.690155 -0.600739
F23   F     F_    0.498601 0.206052 0.643217 -0.593305
F24   F     F_    0.512368 0.739978 0.335352 -0.611231

loop_
_geom_bond_atom_site_label_1
_geom_bond_atom_site_label_2
_ccdc_geom_bond_type
O17   V3    S    
C7    C34   S    
C63   C64   A    
C25   C29   A    
O1    C5    A    
C58   C70   A    
C29   C34   A    
O19   V1    S    
C1    C40   S    
O13   V1    S    
O3    C7    A    
C2    C39   S    
C68   C72   A    
C56   C60   A    
C3    C38   S    
O15   V3    S    
C55   C63   A    
C70   F10   S    
C25   C33   A    
C61   C62   A    
O7    C3    A    
C10   Cl2   S    
C51   C55   A    
C9    Cl1   S    
O9    V1    S    
C68   F24   S    
C14   C18   A    
C11   Cl3   S    
C18   C22   A    
O4    C8    A    
C20   F3    S    
C21   Cl5   S    
C67   F23   S    
O1    V3    S    
C65   F21   S    
C38   C46   A    
O2    V4    S    
C60   C72   A    
O3    V1    S    
C12   C16   A    
C28   C36   A    
C1    O15   A    
C71   F11   S    
C8    C33   S    
O2    C6    A    
O14   V2    S    
C21   C25   A    
C44   F20   S    
C16   C20   A    
C43   C47   A    
C44   C48   A    
C16   F8    S    
C54   C62   A    
O11   C7    A    
C53   C61   A    
O12   C8    A    
C31   C36   A    
O17   V1    S    
O10   V2    S    
C66   C70   A    
O5    V1    S    
C9    C29   A    
C52   Cl11  S    
O7    V3    S    
O19   V3    S    
C44   C60   A    
C47   F16   S    
O20   V4    S    
C19   F4    S    
C5    C36   S    
C18   F1    S    
C2    O16   A    
C6    C35   S    
O18   V4    S    
C15   C19   A    
C37   C49   A    
C13   F5    S    
C11   C31   A    
C65   C69   A    
C9    C13   A    
C42   F18   S    
C26   C34   A    
C14   F6    S    
C11   C15   A    
O5    C1    A    
C12   C32   A    
C43   F19   S    
C42   C58   A    
C57   C69   A    
C54   C58   A    
C41   C57   A    
C64   C67   A    
C53   C57   A    
O8    C4    A    
C59   C71   A    
C40   C52   A    
O9    C5    A    
C26   C30   A    
C43   C59   A    
O11   V3    S    
O6    V2    S    
C39   C47   A    
O18   V2    S    
C22   Cl6   S    
C48   F15   S    
C27   C35   A    
O16   V4    S    
C37   C45   A    
C41   C45   A    
C50   Cl9   S    
C3    O13   A    
C17   C21   A    
C49   Cl10  S    
C24   Cl8   S    
C10   C14   A    
C38   C50   A    
C51   Cl12  S    
C52   C56   A    
C62   C65   A    
O6    C2    A    
C23   C27   A    
C61   C66   A    
C10   C30   A    
O12   V4    S    
C22   C26   A    
C32   C35   A    
C12   Cl4   S    
O10   C6    A    
O20   V2    S    
C56   C64   A    
C55   C59   A    
C4    C37   S    
C46   F13   S    
C42   C46   A    
O8    V4    S    
C39   C51   A    
C45   F14   S    
C23   Cl7   S    
C69   F9    S    
C27   C31   A    
C40   C48   A    
C13   C17   A    
C15   F7    S    
C67   C71   A    
C66   F22   S    
C20   C24   A    
C24   C28   A    
C50   C54   A    
C4    O14   A    
C49   C53   A    
C17   F2    S    
C72   F12   S    
C63   C68   A    
C19   C23   A    
O4    V2    S    
C28   C32   A    
C41   F17   S    
C30   C33   A    
