data_mof_unit_pretest_30.cif
_audit_creation_date              2012-10-26T21:24:47-0400
_audit_creation_method            fapswitch 2.2
_symmetry_space_group_name_H-M    P1
_symmetry_Int_Tables_number       1
_space_group_crystal_system       triclinic
_cell_length_a                    9.549191
_cell_length_b                    10.83382
_cell_length_c                    15.408804
_cell_angle_alpha                 89.813039
_cell_angle_beta                  74.316274
_cell_angle_gamma                 90.632428
_cell_volume                      1534.62910137

loop_
_atom_site_label
_atom_site_type_symbol
_atom_type_description
_atom_site_fract_x
_atom_site_fract_y
_atom_site_fract_z
_atom_type_partial_charge
C1    C     C_R   0.998473 0.262369 0.501609 0.547161
C2    C     C_R   0.241721 0.592793 0.048676 -0.003190
C3    C     C_R   0.336911 0.541891 0.095302 0.018536
C4    C     C_R   0.918342 0.499684 0.672410 0.538718
C5    C     C_R   0.093030 0.604345 0.091952 -0.151080
C6    C     C_R   0.038034 0.567894 0.181601 -0.142454
C7    C     C_R   0.277021 0.500768 0.184461 -0.125924
C8    C     C_R   0.107889 0.065401 0.527400 0.005328
C9    C     C_R   0.991861 0.129387 0.510938 -0.002893
C10   C     C_R   0.865752 0.062884 0.508581 -0.167998
C11   C     C_R   0.866639 0.934175 0.508880 -0.158099
C12   C     C_R   0.683896 0.531818 0.911044 0.031447
C13   C     C_R   0.993458 0.870892 0.511869 -0.014176
C14   C     C_R   0.108336 0.938473 0.529150 0.055006
C15   C     C_3   0.268770 0.934841 0.487271 -0.026682
C16   C     C_R   0.999397 0.737767 0.502132 0.554457
C17   C     C_3   0.267180 0.075066 0.483601 -0.241528
C18   C     C_R   0.591922 0.594398 0.460349 0.248174
C19   C     C_R   0.552778 0.413887 0.547254 -0.019356
C20   C     C_R   0.403778 0.414079 0.547446 -0.012419
C21   C     C_R   0.444966 0.594054 0.460117 0.176012
C22   C     C_3   0.480961 0.633861 0.364052 -0.249456
C23   C     C_R   0.784714 0.501301 0.960066 0.040050
C24   C     C_3   0.640531 0.634746 0.364218 0.120982
C25   C     C_R   0.082291 0.501822 0.327506 0.540208
C26   C     C_R   0.874920 0.501966 0.771380 -0.019412
C27   C     C_R   0.130424 0.519009 0.229085 -0.002499
C28   C     C_R   0.930760 0.479804 0.914733 -0.141638
C29   C     C_R   0.976322 0.482996 0.820882 -0.128479
C30   C     C_R   0.729506 0.523059 0.816752 -0.117210
C31   C     C_3   0.730161 0.801347 0.269363 -0.012401
C32   C     C_3   0.863661 0.885567 0.249748 -0.365811
C33   C     C_3   0.559514 0.796165 0.843171 -0.010368
C34   C     C_R   0.538458 0.562159 0.957865 0.017688
C35   C     C_3   0.652615 0.840744 0.751749 -0.346266
C36   C     C_R   0.488064 0.533409 0.051338 -0.007598
C37   C     C_R   0.591385 0.501049 0.098127 -0.143431
C38   C     C_R   0.737743 0.489372 0.053420 -0.146740
C39   C     C_R   0.443322 0.624845 0.915810 0.240491
C40   C     C_R   0.296294 0.635540 0.960483 -0.112975
Cu1   Cu    Cu3+1 0.140670 0.499980 0.500000 0.958669
Cu2   Cu    Cu3+1 0.859330 0.500020 0.500000 0.967849
H1    H     H_    0.813470 0.465753 0.091867 0.107486
H2    H     H_    0.455633 0.561508 0.319805 0.095835
H3    H     H_    0.342251 0.454038 0.221101 0.111288
H4    H     H_    0.437216 0.726158 0.355811 0.136883
H5    H     H_    0.708048 0.564294 0.320310 0.099271
H6    H     H_    0.924724 0.581768 0.214482 0.118221
H7    H     H_    0.225033 0.680272 0.926231 0.135769
H8    H     H_    0.009204 0.458547 0.951757 0.117116
H9    H     H_    0.089540 0.466172 0.787189 0.143307
H10   H     H_    0.651590 0.527162 0.777635 0.194780
H11   H     H_    0.563616 0.488256 0.170076 0.091993
H12   H     H_    0.019887 0.644746 0.057157 0.107528
H13   H     H_    0.635283 0.856572 0.264282 0.136979
H14   H     H_    0.749063 0.728727 0.216494 0.105154
H15   H     H_    0.960023 0.832454 0.254808 0.160764
H16   H     H_    0.884989 0.924678 0.180634 0.094821
H17   H     H_    0.845757 0.962371 0.298984 0.160973
H18   H     H_    0.632180 0.789190 0.888747 0.124341
H19   H     H_    0.474579 0.865894 0.870672 0.142517
H20   H     H_    0.584473 0.851885 0.704431 0.201154
H21   H     H_    0.704183 0.931085 0.759048 0.101377
H22   H     H_    0.739346 0.773070 0.723424 0.165153
H23   H     H_    0.769665 0.109451 0.501406 0.144885
H24   H     H_    0.770922 0.885139 0.501841 0.201234
H25   H     H_    0.297663 0.891654 0.419646 0.119405
H26   H     H_    0.326528 0.121157 0.527604 0.155302
H27   H     H_    0.292000 0.112600 0.413751 0.119039
H28   H     H_    0.591591 0.342759 0.584055 0.122961
H29   H     H_    0.330913 0.343397 0.584670 0.118147
I1    I     I_    0.379408 0.868473 0.581453 -0.429329
N1    N     N_R   0.648210 0.500930 0.499430 -0.259486
N2    N     N_R   0.352300 0.500890 0.499430 -0.237568
O1    O     O_R   0.118810 0.319640 0.500000 -0.509440
O2    O     O_3   0.492596 0.682170 0.832566 -0.566892
O3    O     O_R   0.881230 0.319680 0.499990 -0.516396
O4    O     O_R   0.055580 0.499970 0.629840 -0.489317
O5    O     O_R   0.818000 0.500010 0.629830 -0.506367
O6    O     O_R   0.118770 0.680320 0.500010 -0.479096
O7    O     O_R   0.881190 0.680360 0.500000 -0.474801
O8    O     O_R   0.182000 0.499990 0.370170 -0.513116
O9    O     O_R   0.944420 0.500030 0.370160 -0.499503
O10   O     O_3   0.703818 0.754012 0.357998 -0.543068

loop_
_geom_bond_atom_site_label_1
_geom_bond_atom_site_label_2
_ccdc_geom_bond_type
C17   H27   S    
C18   C21   A    
C1    O3    A    
Cu1   Cu2   S    
C19   C20   A    
C32   H16   S    
Cu1   O6    S    
C15   I1    S    
C12   C23   A    
C6    H6    S    
C18   C24   S    
C7    H3    S    
C36   C37   A    
C3    C7    A    
C5    C6    A    
C40   H7    S    
C7    C27   A    
Cu1   N2    S    
C28   H8    S    
C22   H2    S    
C31   C32   S    
C8    C9    A    
C17   H26   S    
C20   H29   S    
C35   H22   S    
C31   H14   S    
C9    C10   A    
C11   H24   S    
C37   H11   S    
Cu2   O5    S    
C13   C14   A    
Cu2   O7    S    
C32   H15   S    
C34   C39   A    
C1    O1    A    
C5    H12   S    
C19   N1    A    
C1    C9    S    
C4    O5    A    
C39   C40   A    
C23   C28   A    
C21   N2    A    
C31   O10   S    
C16   O6    A    
C4    O4    A    
C37   C38   A    
Cu1   O1    S    
C33   O2    S    
C6    C27   A    
C15   H25   S    
C20   N2    A    
C39   O2    S    
Cu2   O3    S    
C22   H4    S    
C26   C30   A    
C18   N1    A    
C25   O8    A    
C22   C24   S    
C2    C5    A    
C25   C27   S    
C12   C34   A    
Cu1   O4    S    
C29   H9    S    
C10   H23   S    
C15   C17   S    
C30   H10   S    
C28   C29   A    
Cu2   N1    S    
C8    C14   A    
C12   C30   A    
C24   H5    S    
Cu2   O9    S    
C4    C26   S    
C33   H18   S    
C23   C38   A    
C8    C17   S    
C2    C3    A    
C24   O10   S    
C38   H1    S    
C11   C13   A    
C3    C36   A    
Cu1   O8    S    
C16   O7    A    
C33   C35   S    
C35   H20   S    
C34   C36   A    
C10   C11   A    
C2    C40   A    
C26   C29   A    
C33   H19   S    
C13   C16   S    
C25   O9    A    
C14   C15   S    
C19   H28   S    
C35   H21   S    
C32   H17   S    
C31   H13   S    
C21   C22   S    
