data_mof_unit_pretest_1065.cif
_audit_creation_date              2012-12-11T15:20:18-0500
_audit_creation_method            fapswitch 2.2
_symmetry_space_group_name_H-M    P1
_symmetry_Int_Tables_number       1
_space_group_crystal_system       triclinic
_cell_length_a                    12.892527
_cell_length_b                    13.032151
_cell_length_c                    15.356209
_cell_angle_alpha                 116.547672
_cell_angle_beta                  63.475448
_cell_angle_gamma                 97.238522
_cell_volume                      2056.38143068

loop_
_atom_site_label
_atom_site_type_symbol
_atom_type_description
_atom_site_fract_x
_atom_site_fract_y
_atom_site_fract_z
_atom_type_partial_charge
C1    C     C_R   0.017025 0.834930 0.038902 -0.075027
C2    C     C_R   0.669026 0.540899 0.324268 0.038306
C3    C     C_R   0.634334 0.557959 0.019566 -0.075999
C4    C     C_R   0.080811 0.796284 0.297739 0.074620
C5    C     C_R   0.325088 0.576401 0.009286 -0.095277
C6    C     C_R   0.953098 0.180280 0.778103 0.459396
C7    C     C_R   0.196116 0.515588 0.698228 -0.168854
C8    C     C_R   0.089769 0.251552 0.054160 -0.075902
C9    C     C_R   0.990860 0.166092 0.958256 -0.194606
C10   C     C_R   0.295963 0.601777 0.793963 0.024243
C11   C     C_R   0.243247 0.480938 0.108315 -0.149591
C12   C     C_R   0.678451 0.464229 0.222461 -0.107388
C13   C     C_R   0.051982 0.281587 0.684910 -0.169632
C14   C     C_R   0.336297 0.542526 0.077629 0.159934
C15   C     C_R   0.030186 0.171335 0.674959 -0.075098
C16   C     C_R   0.290113 0.579843 0.699149 0.049818
C17   C     C_R   0.071401 0.144279 0.986817 0.064512
C18   C     C_R   0.154517 0.985691 0.378424 0.072018
C19   C     C_R   0.132160 0.079953 0.475948 -0.194339
C20   C     C_R   0.078541 0.068531 0.572413 0.168134
C21   C     C_R   0.071938 0.958839 0.568194 -0.089904
C22   C     C_R   0.090059 0.863691 0.471416 -0.194880
C23   C     C_R   0.738274 0.580548 0.951048 -0.012534
C24   C     C_R   0.117691 0.878967 0.378793 0.156837
C25   C     C_R   0.564614 0.655324 0.522587 -0.146454
C26   C     C_R   0.468751 0.668185 0.617468 -0.152348
C27   C     C_R   0.368655 0.613590 0.613606 0.129633
C28   C     C_R   0.357444 0.569570 0.516737 -0.165946
C29   C     C_R   0.453583 0.556786 0.421625 -0.145705
C30   C     C_R   0.560902 0.588314 0.423391 0.146941
C31   C     C_2   0.425707 0.570442 0.115442 -0.332598
C32   C     C_2   0.519904 0.617089 0.067892 0.535181
C33   C     C_2   0.885300 0.967767 0.036255 -0.385621
C34   C     C_R   0.019076 0.701496 0.301315 -0.130756
C35   C     C_2   0.846843 0.058633 0.134474 0.464932
C36   C     C_R   0.659479 0.471509 0.036992 -0.086441
C37   C     C_R   0.098988 0.798532 0.203408 -0.017619
C38   C     C_R   0.780992 0.557970 0.315485 -0.110104
C39   C     C_R   0.929038 0.751102 0.931634 0.036161
C40   C     C_R   0.943227 0.857324 0.004055 0.187830
H1    H     H_    0.055101 0.896682 0.088746 0.161569
H2    H     H_    0.155679 0.496656 0.645122 0.094906
H3    H     H_    0.146742 0.268026 0.092530 0.113488
H4    H     H_    0.956875 0.101043 0.907594 0.173966
H5    H     H_    0.218022 0.454078 0.171746 0.101485
H6    H     H_    0.103459 0.310041 0.623540 0.124950
H7    H     H_    0.150740 0.162195 0.474185 0.114168
H8    H     H_    0.047074 0.946815 0.639722 0.159857
H9    H     H_    0.609279 0.421176 0.203869 0.093973
H10   H     H_    0.072400 0.780738 0.472248 0.122973
H11   H     H_    0.643737 0.689334 0.527527 0.125572
H12   H     H_    0.480145 0.711707 0.690211 0.142961
H13   H     H_    0.279260 0.533803 0.510915 0.109890
H14   H     H_    0.445175 0.513311 0.346758 0.106993
H15   H     H_    0.432176 0.512649 0.146452 0.102065
H16   H     H_    0.861177 0.972195 0.978800 0.173907
H17   H     H_    0.746161 0.637459 0.915919 0.163795
H18   H     H_    0.001285 0.665024 0.356869 0.091435
H19   H     H_    0.599729 0.421057 0.073080 0.108035
H20   H     H_    0.157914 0.846182 0.163004 0.118164
H21   H     H_    0.807659 0.609485 0.378490 0.103717
H22   H     H_    0.375267 0.635067 0.979295 0.164000
N1    N     N_R   0.037310 0.720000 0.995790 -0.074960
N2    N     N_R   0.946240 0.290860 0.848040 -0.087136
N3    N     N_R   0.146140 0.501160 0.788590 -0.045142
N4    N     N_R   0.025760 0.332690 0.063610 -0.055678
N5    N     N_R   0.962690 0.280000 0.004210 -0.044501
N6    N     N_R   0.209210 0.553840 0.847990 -0.055561
N7    N     N_R   0.175110 0.482040 0.063580 -0.048545
N8    N     N_R   0.996790 0.351810 0.788620 -0.067071
N9    N     N_R   0.790790 0.446160 0.152010 -0.037387
N10   N     N_R   0.824890 0.517960 0.936420 -0.058464
N11   N     N_R   0.003210 0.648190 0.211380 -0.038883
N12   N     N_R   0.774330 0.457010 0.995840 -0.025551
N13   N     N_R   0.053760 0.709140 0.151960 -0.049218
N14   N     N_R   0.853860 0.498840 0.211410 -0.047665
N15   N     N_R   0.974240 0.667310 0.936390 -0.067108
N16   N     N_R   0.225670 0.542990 0.004160 -0.061855
Ni1   Ni    Ni4+2 0.130310 0.630310 0.999970 0.218492
Ni2   Ni    Ni4+2 0.869690 0.369690 0.000030 0.307451
Ni3   Ni    Ni4+2 0.985640 0.509470 0.863740 0.216480
Ni4   Ni    Ni4+2 0.014360 0.490530 0.136260 0.217311
S1    S     S_3+6 0.831443 0.098752 0.802898 -0.067562
O1    O     O_2   0.862184 0.986274 0.794678 -0.361410
O2    O     O_2   0.737209 0.167673 0.914518 -0.310737
O3    O     O_3   0.782304 0.071555 0.710703 -0.500936
H23   H     H_    0.713622 0.028030 0.729621 0.380785
N17   N     N_3   0.345961 0.698846 0.848110 -0.219317
H24   H     H_    0.423896 0.668191 0.837294 0.141633
H25   H     H_    0.289939 0.737563 0.930972 0.117300
N18   N     N_3   0.207173 0.002602 0.282273 -0.194600
H26   H     H_    0.153982 0.064202 0.290955 0.150300
H27   H     H_    0.287224 0.035775 0.275326 0.159002
S2    S     S_3+6 0.510614 0.756623 0.077335 -0.064571
O4    O     O_2   0.550419 0.748793 0.966232 -0.343623
O5    O     O_2   0.387876 0.811655 0.148603 -0.327805
O6    O     O_3   0.598489 0.837568 0.130932 -0.502062
H28   H     H_    0.599306 0.909648 0.123904 0.378078
S3    S     S_3+6 0.858999 0.072560 0.249097 -0.018476
O7    O     O_2   0.830870 0.963748 0.262944 -0.230457
O8    O     O_2   0.980492 0.097878 0.236687 -0.351276
O9    O     O_3   0.764894 0.182180 0.359728 -0.478673
H29   H     H_    0.788113 0.250630 0.345492 0.329719
N19   N     N_3   0.904089 0.734352 0.844343 -0.190855
H30   H     H_    0.959818 0.781679 0.805123 0.129926
H31   H     H_    0.927987 0.648029 0.787194 0.092866

loop_
_geom_bond_atom_site_label_1
_geom_bond_atom_site_label_2
_ccdc_geom_bond_type
C32   S2    S    
C23   N10   A    
C8    N4    A    
N11   N13   A    
C3    C23   A    
C19   C20   A    
C8    H3    S    
C14   C31   S    
C36   H19   S    
C2    C12   A    
N19   H31   S    
O6    H28   S    
C39   N19   S    
N1    Ni1   S    
C10   N17   S    
C26   C27   A    
C18   C24   A    
C18   N18   S    
C39   N15   A    
C28   C29   A    
C13   H6    S    
C4    C24   S    
C11   C14   A    
C19   H7    S    
N18   H27   S    
C13   N8    A    
C18   C19   A    
C7    H2    S    
C6    N2    A    
N8    Ni3   S    
N9    Ni2   S    
N7    Ni4   S    
C1    C40   A    
C6    C15   A    
S1    O1    D    
N2    N8    A    
N10   Ni3   S    
C22   H10   S    
C38   H21   S    
N17   H24   S    
C16   C27   S    
N4    N5    A    
C37   N13   A    
N12   Ni2   S    
C21   C22   A    
N2    Ni2   S    
N7    N16   A    
O9    H29   S    
C35   S3    S    
C1    N1    A    
N19   H30   S    
C12   H9    S    
C15   C20   S    
C4    C34   A    
C33   C40   S    
N10   N12   A    
N14   Ni4   S    
N18   H26   S    
N16   Ni1   S    
C38   N14   A    
S2    O6    S    
C25   C26   A    
C9    N5    A    
C29   C30   A    
C26   H12   S    
N4    Ni4   S    
C2    C38   A    
N3    Ni3   S    
C31   C32   D    
N15   Ni3   S    
N3    N6    A    
S1    O3    S    
C3    C32   S    
C4    C37   A    
S2    O5    D    
C5    C14   A    
C36   N12   A    
C9    C17   A    
C7    C16   A    
S3    O8    D    
C12   N9    A    
N17   H25   S    
C13   C15   A    
C22   C24   A    
C11   H5    S    
N11   Ni4   S    
C39   C40   A    
N1    N15   A    
C1    H1    S    
C25   C30   A    
C23   H17   S    
C9    H4    S    
C6    S1    S    
S1    O2    D    
O3    H23   S    
C7    N3    A    
N5    Ni2   S    
C8    C17   A    
C28   H13   S    
C11   N7    A    
C10   N6    A    
C25   H11   S    
S3    O7    D    
C2    C30   S    
C21   H8    S    
C10   C16   A    
N9    N14   A    
C3    C36   A    
C33   H16   S    
C33   C35   D    
C5    H22   S    
S2    O4    D    
C37   H20   S    
C34   N11   A    
S3    O9    S    
C20   C21   A    
N6    Ni1   S    
C29   H14   S    
C27   C28   A    
C34   H18   S    
C31   H15   S    
C5    N16   A    
N13   Ni1   S    
