data_mof_unit_pretest_1455.cif
_audit_creation_date              2012-12-11T15:48:48-0500
_audit_creation_method            fapswitch 2.2
_symmetry_space_group_name_H-M    P1
_symmetry_Int_Tables_number       1
_space_group_crystal_system       triclinic
_cell_length_a                    10.975541
_cell_length_b                    10.946057
_cell_length_c                    18.806314
_cell_angle_alpha                 90.34844
_cell_angle_beta                  89.960784
_cell_angle_gamma                 60.264848
_cell_volume                      1961.81858197

loop_
_atom_site_label
_atom_site_type_symbol
_atom_type_description
_atom_site_fract_x
_atom_site_fract_y
_atom_site_fract_z
_atom_type_partial_charge
C1    C     C_R   0.241385 0.644184 0.611180 0.540100
C2    C     C_R   0.568500 0.155727 0.712503 -0.139883
C3    C     C_R   0.565885 0.163987 0.785634 -0.140025
C4    C     C_R   0.652761 0.621031 0.601922 0.540139
C5    C     C_3   0.935181 0.076097 0.784159 -0.268709
C6    C     C_3   0.928634 0.083395 0.703778 -0.283477
C7    C     C_R   0.669373 0.168814 0.673440 -0.000573
C8    C     C_R   0.197269 0.661627 0.838321 -0.002296
C9    C     C_R   0.222310 0.540531 0.800226 -0.026077
C10   C     C_R   0.229683 0.537238 0.726377 0.094029
C11   C     C_R   0.212114 0.764169 0.726949 -0.195267
C12   C     C_3   0.767667 0.513288 0.793649 -0.243773
C13   C     C_R   0.213759 0.763266 0.801040 -0.183020
C14   C     C_3   0.155082 0.451200 0.801706 -0.246438
C15   C     C_3   0.156518 0.453435 0.720580 0.150463
C16   C     C_R   0.629217 0.226523 0.602197 0.540383
C17   C     C_R   0.211808 0.654192 0.687855 -0.026912
C18   C     C_R   0.651052 0.681733 0.169627 -0.032227
C19   C     C_R   0.692981 0.551239 0.199848 -0.010488
C20   C     C_R   0.693762 0.538339 0.272599 -0.013278
C21   C     C_R   0.599819 0.788886 0.289521 0.226055
C22   C     C_R   0.597788 0.801469 0.214933 -0.125118
C23   C     C_3   0.697344 0.670849 0.814113 0.061088
C24   C     C_3   0.826746 0.414136 0.191261 -0.266780
C25   C     C_3   0.830174 0.403504 0.271264 -0.261733
C26   C     C_R   0.653014 0.653007 0.318552 0.033110
C27   C     C_R   0.664259 0.140046 0.178613 0.011109
C28   C     C_R   0.218004 0.651581 0.402867 0.540477
C29   C     C_R   0.538635 0.177064 0.211821 0.027407
C30   C     C_R   0.528244 0.193597 0.283788 0.067818
C31   C     C_R   0.776274 0.108224 0.294210 -0.155960
C32   C     C_R   0.786121 0.096917 0.220389 -0.158106
C33   C     C_3   0.398364 0.302156 0.199049 -0.287808
C34   C     C_3   0.668178 0.645247 0.678246 0.051307
C35   C     C_3   0.386598 0.321346 0.278876 -0.258096
C36   C     C_R   0.643948 0.168364 0.325557 0.060096
C37   C     C_R   0.104800 0.696018 0.190919 0.017976
C38   C     C_R   0.114170 0.801693 0.227015 0.024452
C39   C     C_R   0.128637 0.799243 0.298597 0.025606
C40   C     C_R   0.643960 0.624967 0.393248 0.560664
C41   C     C_R   0.098052 0.596222 0.305008 -0.158808
C42   C     C_R   0.081336 0.600789 0.230713 -0.152988
C43   C     C_3   0.205947 0.863214 0.212963 -0.275713
C44   C     C_3   0.225699 0.858750 0.292231 -0.266432
C45   C     C_3   0.738259 0.735446 0.689012 -0.253403
C46   C     C_R   0.138365 0.686629 0.337692 0.020128
C47   C     C_R   0.701494 0.101384 0.895702 0.538782
C48   C     C_R   0.721228 0.685884 0.889591 0.542093
C49   C     C_R   0.120432 0.704971 0.906216 0.542379
C50   C     C_R   0.677505 0.103355 0.104800 0.544944
C51   C     C_R   0.696023 0.692022 0.098144 0.553317
C52   C     C_R   0.616743 0.228016 0.395717 0.542824
C53   C     C_R   0.082872 0.714711 0.115396 0.547320
C54   C     C_3   0.539731 0.739319 0.796470 -0.248876
C55   C     C_3   0.523338 0.718391 0.716646 -0.223349
C56   C     C_3   0.758156 0.499372 0.713884 -0.222067
C57   C     C_3   0.760694 0.746157 0.769268 -0.217849
C58   C     C_3   0.170904 0.247954 0.680269 -0.150229
C59   C     C_3   0.471649 0.961057 0.374104 -0.090350
C60   C     C_R   0.679434 0.158968 0.823632 0.004253
C61   C     C_R   0.781289 0.171179 0.784667 -0.008312
C62   C     C_R   0.774457 0.179236 0.710485 0.010065
Cr1   Cr    Cr6+3 0.392960 0.397920 0.502240 1.027625
Cr2   Cr    Cr6+3 0.398340 0.708480 0.501250 0.981372
Cr3   Cr    Cr6+3 0.708670 0.393570 0.496460 1.000734
Cr4   Cr    Cr6+3 0.937650 0.938540 0.007610 1.003228
Cr5   Cr    Cr6+3 0.625330 0.937370 0.994520 1.004039
Cr6   Cr    Cr6+3 0.937940 0.625230 0.001190 0.999475
H1    H     H_    0.484729 0.853911 0.809113 0.129499
H2    H     H_    0.954359 0.982076 0.677503 0.142746
H3    H     H_    0.213672 0.850962 0.700526 0.141376
H4    H     H_    0.490471 0.690681 0.828895 0.121456
H5    H     H_    0.209523 0.852810 0.828246 0.138185
H6    H     H_    0.049134 0.505519 0.825179 0.132210
H7    H     H_    0.225860 0.346008 0.824694 0.144021
H8    H     H_    0.052158 0.513706 0.695005 0.089104
H9    H     H_    0.571340 0.902906 0.193116 0.163908
H10   H     H_    0.916505 0.423019 0.170318 0.157255
H11   H     H_    0.809589 0.333263 0.164393 0.139065
H12   H     H_    0.865903 0.444167 0.691120 0.125792
H13   H     H_    0.819617 0.315216 0.291526 0.157242
H14   H     H_    0.476663 0.649382 0.710559 0.146357
H15   H     H_    0.916998 0.413890 0.295632 0.133437
H16   H     H_    0.868601 0.082673 0.325523 0.118895
H17   H     H_    0.888196 0.057441 0.196138 0.148534
H18   H     H_    0.322795 0.272768 0.176432 0.140274
H19   H     H_    0.404376 0.388060 0.170819 0.134976
H20   H     H_    0.387300 0.417881 0.296898 0.155483
H21   H     H_    0.304019 0.303396 0.302433 0.128096
H22   H     H_    0.094282 0.514095 0.335022 0.117629
H23   H     H_    0.874191 0.700775 0.779859 0.107084
H24   H     H_    0.058329 0.526237 0.204669 0.126388
H25   H     H_    0.146843 0.972013 0.191916 0.138273
H26   H     H_    0.451935 0.822219 0.692297 0.125580
H27   H     H_    0.303271 0.790317 0.183257 0.140354
H28   H     H_    0.335332 0.781658 0.307101 0.159170
H29   H     H_    0.180131 0.965092 0.316918 0.121792
H30   H     H_    0.710259 0.859116 0.784767 0.135434
H31   H     H_    0.670176 0.842458 0.667062 0.114838
H32   H     H_    0.879734 0.453575 0.808914 0.128751
H33   H     H_    0.714174 0.463428 0.821627 0.124771
H34   H     H_    0.839764 0.689023 0.659970 0.106397
H35   H     H_    0.708505 0.434483 0.703284 0.147754
H36   H     H_    0.092646 0.297001 0.637029 0.124661
H37   H     H_    0.119214 0.243085 0.730305 0.097675
H38   H     H_    0.245832 0.138176 0.663785 0.125043
H39   H     H_    0.504652 0.937710 0.430443 0.151161
H40   H     H_    0.392938 0.929197 0.362124 0.105261
H41   H     H_    0.417569 0.076617 0.368346 0.135391
H42   H     H_    0.488076 0.143074 0.686207 0.191496
H43   H     H_    0.481518 0.157001 0.811660 0.152185
H44   H     H_    0.961259 0.971676 0.805120 0.171448
H45   H     H_    0.992552 0.125886 0.808185 0.125299
H46   H     H_    0.981963 0.137549 0.680622 0.121719
O1    O     O_R   0.507380 0.255700 0.581440 -0.497331
O2    O     O_R   0.837170 0.593410 0.915250 -0.536468
O3    O     O_R   0.065200 0.635530 0.931570 -0.505482
O4    O     O_R   0.280320 0.527350 0.578930 -0.467132
O5    O     O_R   0.068260 0.828890 0.091840 -0.523748
O6    O     O_R   0.798870 0.057410 0.079340 -0.516361
O7    O     O_R   0.584930 0.080350 0.076780 -0.517582
O8    O     O_R   0.626960 0.809650 0.067060 -0.509447
O9    O     O_R   0.816040 0.596610 0.076510 -0.521865
O10   O     O_R   0.045610 0.638500 0.081060 -0.509949
O11   O     O_3   0.833640 0.833710 0.001100 -0.249038
O12   O     O_R   0.524480 0.695810 0.424040 -0.523868
O13   O     O_R   0.260510 0.739590 0.584590 -0.536859
O14   O     O_R   0.532300 0.695080 0.573820 -0.514048
O15   O     O_R   0.744840 0.503500 0.576370 -0.529546
O16   O     O_R   0.699120 0.276560 0.571960 -0.504838
O17   O     O_R   0.498940 0.256500 0.419860 -0.534346
O18   O     O_R   0.272500 0.528080 0.429150 -0.513462
O19   O     O_R   0.252060 0.740380 0.423010 -0.527959
O20   O     O_3   0.245753 0.320365 0.690237 -0.553987
O21   O     O_3   0.591570 0.899336 0.329850 -0.573927
O22   O     O_R   0.736390 0.504290 0.414790 -0.520420
O23   O     O_R   0.691300 0.277290 0.422170 -0.513267
O24   O     O_3   0.499990 0.499990 0.499980 -0.249749
O25   O     O_R   0.089400 0.825690 0.930570 -0.529335
O26   O     O_R   0.818460 0.054440 0.929850 -0.499720
O27   O     O_R   0.606060 0.077150 0.915510 -0.534715
O28   O     O_R   0.646550 0.806680 0.917570 -0.509451

loop_
_geom_bond_atom_site_label_1
_geom_bond_atom_site_label_2
_ccdc_geom_bond_type
C21   C26   A    
Cr5   O8    S    
C34   C56   S    
C8    C13   A    
C27   C29   A    
C28   C46   S    
C51   O9    A    
C41   C42   A    
C2    C7    A    
C43   C44   S    
Cr6   O10   S    
Cr3   O16   S    
C15   O20   S    
Cr2   O24   S    
C58   O20   S    
C40   O22   A    
C12   C23   S    
C45   C57   S    
C37   C38   A    
C30   C35   S    
C50   O6    A    
C14   H6    S    
C10   C15   S    
Cr5   O11   S    
C38   C39   A    
C11   H3    S    
C20   C25   S    
C32   H17   S    
C10   C17   A    
C29   C33   S    
C23   C57   S    
C18   C19   A    
C44   H29   S    
C37   C42   A    
C6    H46   S    
C43   H25   S    
C47   C60   S    
Cr2   O19   S    
C49   O3    A    
Cr4   O25   S    
C19   C20   A    
C3    H43   S    
C8    C9    A    
Cr2   O14   S    
C47   O26   A    
C43   H27   S    
C41   C46   A    
Cr1   O17   S    
C16   O16   A    
C9    C10   A    
C31   C36   A    
C36   C52   S    
C27   C50   S    
C48   O2    A    
Cr1   O1    S    
C3    C60   A    
C41   H22   S    
C34   C55   S    
Cr4   O6    S    
C21   C22   A    
C25   H13   S    
C50   O7    A    
Cr3   O23   S    
C55   H26   S    
Cr5   O7    S    
Cr6   O9    S    
C18   C51   S    
C4    C34   S    
C4    O14   A    
C48   O28   A    
C28   O19   A    
C24   C25   S    
C56   H35   S    
C45   H31   S    
Cr1   O4    S    
C59   H39   S    
C31   H16   S    
C59   H41   S    
C60   C61   A    
C28   O18   A    
C33   H18   S    
C7    C62   A    
C29   C30   A    
C44   H28   S    
Cr6   O3    S    
C35   H20   S    
C24   H11   S    
C31   C32   A    
Cr2   O13   S    
C40   O12   A    
C52   O23   A    
C9    C14   S    
C5    C61   S    
C34   C45   S    
Cr1   O18   S    
C55   H14   S    
C12   C56   S    
Cr6   O2    S    
C39   C46   A    
Cr3   O24   S    
C35   H21   S    
C24   H10   S    
C7    C16   S    
Cr4   O26   S    
C13   H5    S    
Cr2   O12   S    
Cr4   O5    S    
C49   O25   A    
Cr1   O24   S    
C58   H36   S    
Cr5   O27   S    
C16   O1    A    
C23   C54   S    
C6    H2    S    
C54   C55   S    
C11   C17   A    
C23   C48   S    
C57   H23   S    
C5    H45   S    
C27   C32   A    
C18   C22   A    
C52   O17   A    
C1    O13   A    
C22   H9    S    
C53   O10   A    
Cr3   O15   S    
C53   O5    A    
C39   C44   S    
C5    H44   S    
C47   O27   A    
C1    C17   S    
C59   H40   S    
C56   H12   S    
Cr4   O11   S    
C30   C36   A    
C4    O15   A    
C58   H37   S    
C14   H7    S    
C6    C62   S    
C19   C24   S    
C33   H19   S    
C37   C53   S    
C12   H33   S    
C11   C13   A    
C26   C40   S    
C5    C6    S    
C54   H1    S    
C20   C26   A    
C57   H30   S    
Cr6   O11   S    
C59   O21   S    
C33   C35   S    
C2    C3    A    
C42   H24   S    
C1    O4    A    
C61   C62   A    
C12   H32   S    
Cr3   O22   S    
C45   H34   S    
C38   C43   S    
C54   H4    S    
C25   H15   S    
C51   O8    A    
C14   C15   S    
C15   H8    S    
C58   H38   S    
Cr5   O28   S    
C8    C49   S    
C21   O21   S    
C2    H42   S    
