data_mof_unit_pretest_1391.cif
_audit_creation_date              2012-12-11T15:29:34-0500
_audit_creation_method            fapswitch 2.2
_symmetry_space_group_name_H-M    P1
_symmetry_Int_Tables_number       1
_space_group_crystal_system       triclinic
_cell_length_a                    13.487045
_cell_length_b                    13.49913
_cell_length_c                    27.573888
_cell_angle_alpha                 90.568811
_cell_angle_beta                  90.027192
_cell_angle_gamma                 60.048404
_cell_volume                      4349.46292641

loop_
_atom_site_label
_atom_site_type_symbol
_atom_type_description
_atom_site_fract_x
_atom_site_fract_y
_atom_site_fract_z
_atom_type_partial_charge
C1    C     C_R   0.620347 0.101191 0.569869 0.545815
C2    C     C_1   0.631169 0.731859 0.615935 -0.016188
C3    C     C_3   0.718890 0.557204 0.766689 -0.101022
C4    C     C_3   0.679500 0.654594 0.804403 0.052478
C5    C     C_3   0.605657 0.629002 0.738833 -0.099077
C6    C     C_3   0.663405 0.683233 0.709982 0.052776
C7    C     C_3   0.566518 0.725919 0.777277 -0.101954
C8    C     C_3   0.624037 0.780627 0.747698 -0.101372
C9    C     C_1   0.688355 0.633689 0.856598 -0.059862
C10   C     C_1   0.649507 0.704625 0.657837 -0.059012
C11   C     C_3   0.068911 0.177095 0.736454 -0.104056
C12   C     C_R   0.599729 0.779288 0.568460 0.545528
C13   C     C_3   0.140015 0.080218 0.772768 -0.100421
C14   C     C_1   0.098168 0.199870 0.900355 -0.016945
C15   C     C_1   0.230144 0.137531 0.617186 -0.016479
C16   C     C_3   0.077576 0.264309 0.770543 -0.101402
C17   C     C_3   0.149114 0.167284 0.806048 0.052700
C18   C     C_3   0.189363 0.240867 0.744869 -0.099035
C19   C     C_3   0.180335 0.153856 0.711518 0.053110
C20   C     C_3   0.260494 0.144105 0.781085 -0.104128
C21   C     C_3   0.251974 0.056757 0.746964 -0.102214
C22   C     C_1   0.126328 0.180585 0.858324 -0.059812
C23   C     C_R   0.277848 0.121618 0.569406 0.545681
C24   C     C_1   0.202583 0.146305 0.659247 -0.059285
C25   C     C_3   0.612076 0.280086 0.739659 -0.088701
C26   C     C_3   0.551930 0.244242 0.777519 0.031587
C27   C     C_1   0.691112 0.206365 0.901572 -0.017093
C28   C     C_1   0.635452 0.133143 0.617820 -0.015399
C29   C     C_3   0.723629 0.219580 0.769885 -0.111567
C30   C     C_3   0.661930 0.184632 0.807235 0.061931
C31   C     C_3   0.761340 0.106261 0.741722 -0.107791
C32   C     C_3   0.650056 0.166740 0.712350 0.042290
C33   C     C_3   0.699718 0.071604 0.779679 -0.110934
C34   C     C_R   0.621945 0.100221 0.431536 0.542474
C35   C     C_3   0.588121 0.131656 0.749504 -0.089110
C36   C     C_1   0.673814 0.195270 0.859552 -0.057146
C37   C     C_1   0.643519 0.151970 0.659995 -0.059623
C38   C     C_R   0.640044 0.722128 0.383042 0.024184
C39   C     C_R   0.723423 0.735240 0.358076 -0.126087
C40   C     C_R   0.736212 0.717185 0.308495 -0.123808
C41   C     C_R   0.668609 0.682052 0.283409 0.037807
C42   C     C_R   0.593743 0.657415 0.309104 -0.121359
C43   C     C_R   0.578805 0.678258 0.358739 -0.130481
C44   C     C_R   0.575995 0.704496 0.203134 -0.121788
C45   C     C_R   0.601976 0.776783 0.430476 0.541413
C46   C     C_R   0.584826 0.681863 0.153607 -0.130836
C47   C     C_R   0.789457 0.609669 0.157593 -0.126975
C48   C     C_R   0.781049 0.629630 0.207092 -0.124181
C49   C     C_R   0.675022 0.673007 0.230484 0.036611
C50   C     C_R   0.692530 0.629312 0.131093 0.023411
C51   C     C_R   0.225373 0.137402 0.383499 0.024398
C52   C     C_R   0.248226 0.041378 0.355080 -0.126577
C53   C     C_R   0.224325 0.053016 0.305902 -0.122606
C54   C     C_R   0.174809 0.161139 0.284608 0.036714
C55   C     C_R   0.143820 0.258286 0.313759 -0.118894
C56   C     C_R   0.279020 0.120042 0.431002 0.541938
C57   C     C_R   0.169779 0.246391 0.362916 -0.127421
C58   C     C_R   0.175234 0.250793 0.206074 -0.120619
C59   C     C_R   0.147864 0.268628 0.157107 -0.129818
C60   C     C_R   0.094057 0.121905 0.158588 -0.126027
C61   C     C_R   0.119482 0.105555 0.207553 -0.122431
C62   C     C_R   0.157062 0.172156 0.231999 0.036690
C63   C     C_R   0.103332 0.206981 0.133492 0.022891
C64   C     C_R   0.641077 0.139447 0.385022 0.023114
C65   C     C_R   0.548578 0.231578 0.361917 -0.125191
C66   C     C_R   0.555862 0.251711 0.313181 -0.121519
C67   C     C_3   0.776493 0.611873 0.737043 -0.101683
C68   C     C_R   0.656399 0.181387 0.287033 0.036954
C69   C     C_R   0.752317 0.095791 0.311159 -0.120275
C70   C     C_R   0.744568 0.074532 0.359854 -0.128885
C71   C     C_R   0.716430 0.097396 0.204200 -0.119319
C72   C     C_R   0.728440 0.109650 0.154929 -0.127692
C73   C     C_R   0.618002 0.315940 0.164674 -0.127282
C74   C     C_R   0.607667 0.303724 0.214038 -0.122633
C75   C     C_R   0.659779 0.194433 0.234384 0.035507
C76   C     C_R   0.682420 0.219058 0.135216 0.024132
C77   C     C_R   0.049964 0.234808 0.947994 0.545816
C78   C     C_3   0.737338 0.708841 0.775623 -0.099944
C79   C     C_R   0.712002 0.561827 0.946410 0.545509
C80   C     C_R   0.722497 0.224027 0.949166 0.545178
C81   C     C_R   0.047800 0.243708 0.086350 0.542085
C82   C     C_R   0.709234 0.572331 0.084243 0.540581
C83   C     C_R   0.719786 0.233413 0.087470 0.540926
C84   C     C_1   0.697375 0.607424 0.898628 -0.016929
Cr1   Cr    Cr6+3 0.417550 0.169090 0.500530 1.020173
Cr2   Cr    Cr6+3 0.669180 0.913420 0.499920 1.019888
Cr3   Cr    Cr6+3 0.413260 0.917540 0.499520 1.020720
Cr4   Cr    Cr6+3 0.909770 0.175810 0.018240 1.019931
Cr5   Cr    Cr6+3 0.913300 0.427650 0.016090 1.019517
Cr6   Cr    Cr6+3 0.657770 0.431010 0.016900 1.020825
H1    H     H_    0.790988 0.742051 0.791341 0.101725
H2    H     H_    0.339217 0.130215 0.799832 0.100593
H3    H     H_    0.209336 0.307221 0.732814 0.103367
H4    H     H_    0.005642 0.350039 0.780813 0.103451
H5    H     H_    0.575952 0.365654 0.722938 0.100461
H6    H     H_    0.531471 0.096264 0.740665 0.098325
H7    H     H_    0.735414 0.986139 0.796455 0.102402
H8    H     H_    0.848050 0.049622 0.726378 0.107518
H9    H     H_    0.779930 0.255342 0.778766 0.099493
H10   H     H_    0.772095 0.768959 0.375914 0.132605
H11   H     H_    0.862603 0.564651 0.719957 0.104103
H12   H     H_    0.492581 0.742248 0.220310 0.101675
H13   H     H_    0.508871 0.698825 0.133612 0.124188
H14   H     H_    0.794407 0.737005 0.289584 0.098545
H15   H     H_    0.858782 0.604399 0.227302 0.099911
H16   H     H_    0.873796 0.569043 0.141115 0.133913
H17   H     H_    0.543907 0.625954 0.290598 0.099227
H18   H     H_    0.514921 0.666448 0.377456 0.123465
H19   H     H_    0.292340 0.956037 0.369943 0.134096
H20   H     H_    0.156427 0.334176 0.138410 0.124826
H21   H     H_    0.584783 0.872902 0.739255 0.099072
H22   H     H_    0.249781 0.976652 0.284215 0.099959
H23   H     H_    0.104201 0.044749 0.226699 0.100666
H24   H     H_    0.059566 0.073187 0.141369 0.133332
H25   H     H_    0.102248 0.343021 0.298329 0.102595
H26   H     H_    0.151067 0.321555 0.384300 0.123238
H27   H     H_    0.467601 0.283331 0.380440 0.131250
H28   H     H_    0.754088 0.012111 0.218905 0.104706
H29   H     H_    0.778078 0.033919 0.132697 0.122964
H30   H     H_    0.480695 0.318219 0.295438 0.099890
H31   H     H_    0.563858 0.379879 0.236560 0.101461
H32   H     H_    0.480350 0.773150 0.794318 0.103571
H33   H     H_    0.582954 0.401404 0.150385 0.134340
H34   H     H_    0.832074 0.042875 0.291975 0.101556
H35   H     H_    0.817410 0.003705 0.376988 0.124554
H36   H     H_    0.551953 0.595770 0.723184 0.101923
H37   H     H_    0.119970 0.013953 0.784880 0.105090
H38   H     H_    0.990222 0.190860 0.717701 0.101804
H39   H     H_    0.323953 0.971124 0.736621 0.103647
O1    O     O_R   0.301780 0.195490 0.553940 -0.507747
O2    O     O_R   0.658840 0.818280 0.449970 -0.506153
O3    O     O_R   0.503160 0.801780 0.445740 -0.522302
O4    O     O_R   0.319320 0.022190 0.450230 -0.504873
O5    O     O_3   0.499990 0.000010 0.499990 -0.244165
O6    O     O_R   0.819250 0.149410 0.965240 -0.507717
O7    O     O_R   0.006940 0.180310 0.968270 -0.494332
O8    O     O_R   0.028420 0.332670 0.963010 -0.507096
O9    O     O_R   0.810130 0.520390 0.966030 -0.494721
O10   O     O_R   0.636050 0.541380 0.962520 -0.507267
O11   O     O_R   0.666480 0.323610 0.968170 -0.494059
O12   O     O_R   0.522450 0.158840 0.550250 -0.494830
O13   O     O_R   0.817280 0.156800 0.072180 -0.520136
O14   O     O_R   0.005110 0.187160 0.067410 -0.504950
O15   O     O_R   0.026450 0.340060 0.069950 -0.522116
O16   O     O_R   0.808300 0.527240 0.065170 -0.505977
O17   O     O_R   0.634070 0.548770 0.069460 -0.521907
O18   O     O_R   0.664650 0.330470 0.067300 -0.504028
O19   O     O_3   0.826940 0.344820 0.017080 -0.244167
O20   O     O_R   0.694460 0.003360 0.553820 -0.506678
O21   O     O_R   0.657750 0.819520 0.549120 -0.494176
O22   O     O_R   0.501990 0.803120 0.552700 -0.507501
O23   O     O_R   0.318230 0.023430 0.549370 -0.493894
O24   O     O_R   0.302950 0.194150 0.446980 -0.519991
O25   O     O_R   0.523540 0.157600 0.451100 -0.504606
O26   O     O_R   0.695630 0.002030 0.446860 -0.522128
C85   C     C_3   0.432802 0.321910 0.798075 -0.407675
H40   H     H_    0.369386 0.351764 0.768266 0.123866
H41   H     H_    0.411341 0.274261 0.824687 0.131572
H42   H     H_    0.429959 0.396871 0.816384 0.137872
H43   H     H_    0.207624 0.300627 0.223939 0.102814
H44   H     H_    0.758100 0.464944 0.775144 0.097165

loop_
_geom_bond_atom_site_label_1
_geom_bond_atom_site_label_2
_ccdc_geom_bond_type
C44   C49   A    
C58   C62   A    
Cr5   O19   S    
C66   C68   A    
C23   O23   A    
C41   C42   A    
Cr3   O4    S    
C26   C85   S    
Cr3   O5    S    
C72   C76   A    
C2    C12   S    
C17   C20   S    
Cr6   O10   S    
C7    C8    S    
C35   H6    S    
C68   C75   S    
Cr5   O16   S    
C20   H2    S    
C11   C19   S    
Cr6   O18   S    
C80   O6    A    
C63   C81   S    
C60   C63   A    
C28   C37   T    
C85   H40   S    
C19   C21   S    
C77   O8    A    
C18   C19   S    
Cr2   O21   S    
C79   C84   S    
Cr2   O2    S    
C31   H8    S    
C59   H20   S    
C51   C56   S    
C73   C74   A    
C14   C77   S    
C41   C49   S    
C38   C45   S    
Cr6   O19   S    
C60   H24   S    
Cr2   O5    S    
C81   O15   A    
C47   C48   A    
C16   C17   S    
C73   H33   S    
C5    H36   S    
C1    C28   S    
C31   C33   S    
C1    O20   A    
C51   C57   A    
C77   O7    A    
C64   C70   A    
C57   H26   S    
C42   H17   S    
Cr4   O14   S    
C18   C20   S    
C30   C33   S    
Cr1   O5    S    
C43   H18   S    
C25   C32   S    
C15   C23   S    
C48   H15   S    
Cr3   O22   S    
C8    C78   S    
C12   O22   A    
C69   C70   A    
C67   C78   S    
C4    C7    S    
C76   C83   S    
Cr4   O13   S    
C82   O17   A    
C44   C46   A    
C56   O4    A    
C47   C50   A    
C34   O25   A    
C25   C29   S    
C38   C39   A    
C45   O2    A    
C74   C75   A    
C29   H9    S    
C51   C52   A    
C32   C35   S    
C12   O21   A    
Cr4   O7    S    
C27   C80   S    
C8    H21   S    
Cr1   O12   S    
C39   C40   A    
C5    C7    S    
C44   H12   S    
C68   C69   A    
C6    C8    S    
C54   C62   S    
C69   H34   S    
C58   C59   A    
C34   O26   A    
C23   O1    A    
C60   C61   A    
Cr3   O3    S    
Cr2   O26   S    
C79   O10   A    
C4    C78   S    
C29   C30   S    
Cr1   O1    S    
C40   H14   S    
C11   C16   S    
C31   C32   S    
C47   H16   S    
C79   O9    A    
C34   C64   S    
Cr4   O19   S    
C13   C21   S    
Cr1   O24   S    
C32   C37   S    
C21   H39   S    
C83   O18   A    
C53   H22   S    
C16   C18   S    
C40   C41   A    
C25   H5    S    
Cr5   O8    S    
Cr3   O23   S    
C55   C57   A    
C61   H23   S    
C27   C36   T    
C73   C76   A    
Cr2   O20   S    
C42   C43   A    
C7    H32   S    
C3    C4    S    
C2    C10   T    
C6    C67   S    
C82   O16   A    
C52   C53   A    
C67   H11   S    
C54   C55   A    
C15   C24   T    
C71   H28   S    
C59   C63   A    
C85   H42   S    
C3    C67   S    
Cr4   O6    S    
C56   O24   A    
C3    C5    S    
C6    C10   S    
C83   O13   A    
Cr6   O11   S    
C53   C54   A    
C13   C17   S    
C78   H1    S    
Cr5   O15   S    
C46   H13   S    
C46   C50   A    
C16   H4    S    
C17   C22   S    
C30   C36   S    
C50   C82   S    
C14   C22   T    
C85   H41   S    
C19   C24   S    
C25   C26   S    
C38   C43   A    
Cr6   O17   S    
C80   O11   A    
C64   C65   A    
C71   C75   A    
C11   C13   S    
C39   H10   S    
C5    C6    S    
C55   H25   S    
C52   H19   S    
C48   C49   A    
C72   H29   S    
C33   C35   S    
C11   H38   S    
C33   H7    S    
Cr1   O25   S    
C65   C66   A    
C70   H35   S    
C61   C62   A    
C66   H30   S    
C1    O12   A    
C3    H44   S    
C9    C84   T    
C13   H37   S    
C26   C35   S    
C81   O14   A    
C74   H31   S    
C71   C72   A    
C20   C21   S    
C45   O3    A    
C29   C31   S    
Cr5   O9    S    
C18   H3    S    
C65   H27   S    
C58   H43   S    
C4    C9    S    
C26   C30   S    
