data_mof_unit_pretest_1015.cif
_audit_creation_date              2012-12-11T14:13:18-0500
_audit_creation_method            fapswitch 2.2
_symmetry_space_group_name_H-M    P1
_symmetry_Int_Tables_number       1
_space_group_crystal_system       triclinic
_cell_length_a                    11.604586
_cell_length_b                    18.434941
_cell_length_c                    10.032922
_cell_angle_alpha                 88.889468
_cell_angle_beta                  109.669033
_cell_angle_gamma                 91.2414
_cell_volume                      2020.4671495

loop_
_atom_site_label
_atom_site_type_symbol
_atom_type_description
_atom_site_fract_x
_atom_site_fract_y
_atom_site_fract_z
_atom_type_partial_charge
C1    C     C_R   0.075088 0.645388 0.142178 0.553885
C2    C     C_R   0.924994 0.354567 0.857831 0.560342
C3    C     C_R   0.928815 0.147630 0.860527 0.551105
C4    C     C_R   0.071059 0.852319 0.139509 0.552570
C5    C     C_R   0.396968 0.454852 0.461338 -0.013104
C6    C     C_R   0.606647 0.545401 0.536484 -0.015569
C7    C     C_R   0.591880 0.966566 0.461568 -0.005394
C8    C     C_R   0.407323 0.033795 0.534963 -0.004864
C9    C     C_2   0.412618 0.922064 0.914817 -0.119199
C10   C     C_2   0.587897 0.077417 0.083531 -0.118964
C11   C     C_2   0.592627 0.423877 0.083532 -0.128111
C12   C     C_2   0.365228 0.560038 0.988696 -0.124118
C13   C     C_2   0.493368 0.962102 0.012020 -0.188669
C14   C     C_2   0.508910 0.037114 0.984983 -0.187689
C15   C     C_2   0.479277 0.448971 0.039169 -0.157549
C16   C     C_2   0.460183 0.523527 0.073122 -0.155780
C17   C     C_2   0.003821 0.919355 0.109089 -0.119700
C18   C     C_2   0.995597 0.080464 0.891181 -0.117954
C19   C     C_2   0.987475 0.424167 0.883817 -0.111215
C20   C     C_2   0.012184 0.575898 0.115991 -0.107752
C21   C     C_2   0.018008 0.962340 0.006787 -0.193666
C22   C     C_2   0.979703 0.037134 0.992055 -0.193540
C23   C     C_2   0.971282 0.464803 0.984651 -0.153894
C24   C     C_2   0.026408 0.535743 0.013403 -0.157463
C25   C     C_R   0.468059 0.646594 0.443345 0.539568
C26   C     C_R   0.532669 0.353472 0.556877 0.550856
C27   C     C_R   0.560329 0.137062 0.626282 0.558892
C28   C     C_R   0.439323 0.862831 0.372869 0.560716
C29   C     C_R   0.352114 0.637468 0.007471 0.567649
C30   C     C_R   0.623934 0.355181 0.035465 0.549254
C31   C     C_R   0.621932 0.146516 0.038704 0.545793
C32   C     C_R   0.378158 0.853357 0.961004 0.555014
C33   C     C_R   0.512530 0.425192 0.485500 -0.037546
C34   C     C_R   0.490822 0.574693 0.514146 -0.040133
C35   C     C_R   0.468904 0.940289 0.409900 -0.034108
C36   C     C_R   0.530395 0.059862 0.587375 -0.033466
C37   C     C_R   0.290425 0.411335 0.409313 -0.073079
C38   C     C_R   0.712452 0.589728 0.586644 -0.071395
C39   C     C_R   0.689619 0.938921 0.424372 -0.068751
C40   C     C_R   0.309377 0.061615 0.571453 -0.071659
C41   C     C_R   0.176670 0.437926 0.400853 -0.003467
C42   C     C_R   0.826886 0.563721 0.596814 -0.004284
C43   C     C_R   0.808638 0.942128 0.521279 -0.008490
C44   C     C_R   0.190953 0.059238 0.473418 -0.011140
C45   C     C_R   0.170533 0.505938 0.456695 -0.082574
C46   C     C_R   0.835139 0.494568 0.547208 -0.082937
C47   C     C_R   0.825677 0.969217 0.655688 -0.067633
C48   C     C_R   0.174529 0.032298 0.339030 -0.066347
C49   C     C_R   0.276223 0.549195 0.512322 0.030158
C50   C     C_R   0.730861 0.449874 0.493961 0.031382
C51   C     C_R   0.729766 0.004479 0.683147 0.019557
C52   C     C_R   0.270080 0.996168 0.312593 0.018371
C53   C     C_R   0.388256 0.527450 0.496974 0.023274
C54   C     C_R   0.616429 0.472172 0.503879 0.019936
C55   C     C_R   0.621580 0.016684 0.570522 0.015010
C56   C     C_R   0.377756 0.983720 0.425879 0.014935
Cr1   Cr    Cr6+3 0.187610 0.750000 0.979860 0.981393
Cr2   Cr    Cr6+3 0.812390 0.250000 0.020140 0.988572
Cr3   Cr    Cr6+3 0.245810 0.750000 0.341640 1.004144
Cr4   Cr    Cr6+3 0.754190 0.250000 0.658360 1.002278
Cr5   Cr    Cr6+3 0.485760 0.750000 0.219910 1.000680
Cr6   Cr    Cr6+3 0.514240 0.250000 0.780090 1.003185
H1    H     H_    0.084354 0.524111 0.462830 0.098437
H2    H     H_    0.922366 0.476304 0.544327 0.099078
H3    H     H_    0.909747 0.957615 0.738447 0.118516
H4    H     H_    0.091442 0.044531 0.255580 0.119118
H5    H     H_    0.295867 0.356679 0.373982 0.119830
H6    H     H_    0.705998 0.644767 0.619484 0.125539
H7    H     H_    0.673943 0.910875 0.326268 0.126372
H8    H     H_    0.324266 0.089131 0.670066 0.128661
H9    H     H_    0.461913 0.057950 0.879264 0.149553
H10   H     H_    0.541327 0.941195 0.117274 0.149041
H11   H     H_    0.530001 0.550666 0.159511 0.165982
H12   H     H_    0.403858 0.417452 0.968446 0.152769
H13   H     H_    0.639825 0.055170 0.187097 0.106694
H14   H     H_    0.359674 0.944416 0.811721 0.106644
H15   H     H_    0.295779 0.532008 0.903664 0.091122
H16   H     H_    0.666753 0.458535 0.147058 0.101166
H17   H     H_    0.927992 0.054858 0.057744 0.159629
H18   H     H_    0.068698 0.944420 0.940152 0.160115
H19   H     H_    0.082234 0.554690 0.951251 0.150653
H20   H     H_    0.914131 0.446147 0.045481 0.159819
H21   H     H_    0.041884 0.061828 0.820825 0.086767
H22   H     H_    0.959139 0.938288 0.181022 0.091347
H23   H     H_    0.963081 0.555471 0.184420 0.092506
H24   H     H_    0.038044 0.444218 0.816667 0.087547
O1    O     O_R   0.267710 0.668200 0.902110 -0.536442
O2    O     O_R   0.732290 0.331800 0.097890 -0.533504
O3    O     O_R   0.732290 0.168200 0.097890 -0.519999
O4    O     O_R   0.267710 0.831800 0.902110 -0.516723
O5    O     O_R   0.099480 0.674460 0.038850 -0.518198
O6    O     O_R   0.900520 0.325540 0.961150 -0.503941
O7    O     O_R   0.900520 0.174460 0.961150 -0.506329
O8    O     O_R   0.099480 0.825540 0.038850 -0.505813
O9    O     O_R   0.116720 0.669210 0.267660 -0.523705
O10   O     O_R   0.883280 0.330790 0.732340 -0.530244
O11   O     O_R   0.883280 0.169210 0.732340 -0.518442
O12   O     O_R   0.116720 0.830790 0.267660 -0.516564
O13   O     O_R   0.366710 0.675440 0.427590 -0.500904
O14   O     O_R   0.633290 0.324560 0.572410 -0.504516
O15   O     O_R   0.633290 0.175440 0.572410 -0.482241
O16   O     O_R   0.366710 0.824560 0.427590 -0.478658
O17   O     O_R   0.534870 0.669390 0.371760 -0.515474
O18   O     O_R   0.465130 0.330610 0.628240 -0.501380
O19   O     O_R   0.465130 0.169390 0.628240 -0.529171
O20   O     O_R   0.534870 0.830610 0.371760 -0.526119
O21   O     O_R   0.453080 0.674480 0.075160 -0.491271
O22   O     O_R   0.546920 0.325520 0.924840 -0.489932
O23   O     O_R   0.546920 0.174480 0.924840 -0.523895
O24   O     O_R   0.453080 0.825520 0.075160 -0.518960
O25   O     O_3   0.306390 0.750000 0.180470 -0.284042
O26   O     O_3   0.693610 0.250000 0.819530 -0.264729
C57   C     C_3   0.064317 0.391199 0.342186 -0.400112
H25   H     H_    0.066387 0.345419 0.416457 0.129832
H26   H     H_    0.980714 0.423066 0.325442 0.113560
H27   H     H_    0.060527 0.369110 0.238651 0.151535
C58   C     C_3   0.937946 0.612004 0.651817 -0.399818
H28   H     H_    0.930977 0.658572 0.577811 0.132112
H29   H     H_    0.944494 0.632972 0.757097 0.152602
H30   H     H_    0.022699 0.582142 0.663362 0.112366
C59   C     C_3   0.912517 0.907102 0.490611 -0.402126
H31   H     H_    0.883239 0.885740 0.381287 0.128062
H32   H     H_    0.987564 0.947351 0.502391 0.140580
H33   H     H_    0.947790 0.861368 0.566092 0.139712
C60   C     C_3   0.088337 0.094850 0.505485 -0.404571
H34   H     H_    0.110305 0.153330 0.526753 0.141791
H35   H     H_    0.000644 0.089875 0.415948 0.135593
H36   H     H_    0.076078 0.068630 0.600268 0.125508
C61   C     C_3   0.269369 0.609879 0.607637 -0.336076
H37   H     H_    0.360949 0.633184 0.666924 0.151552
H38   H     H_    0.208019 0.653088 0.546341 0.167655
H39   H     H_    0.230146 0.587973 0.686544 0.114715
C62   C     C_3   0.743856 0.386049 0.408355 -0.343820
H40   H     H_    0.802390 0.343810 0.476176 0.178559
H41   H     H_    0.653888 0.361989 0.345886 0.141325
H42   H     H_    0.790802 0.403978 0.334167 0.102430
C63   C     C_3   0.720032 0.001925 0.829003 -0.399468
H43   H     H_    0.780898 0.960942 0.897353 0.147655
H44   H     H_    0.734405 0.056605 0.875993 0.144147
H45   H     H_    0.627547 0.982125 0.822642 0.135594
C64   C     C_3   0.279582 0.997125 0.166604 -0.400342
H46   H     H_    0.264748 0.942041 0.121426 0.144991
H47   H     H_    0.218609 0.037612 0.096796 0.146172
H48   H     H_    0.372123 0.016445 0.172229 0.135261

loop_
_geom_bond_atom_site_label_1
_geom_bond_atom_site_label_2
_ccdc_geom_bond_type
C44   C48   A    
C23   H20   S    
C4    O12   A    
C12   C29   S    
Cr3   O13   S    
C14   H9    S    
C7    C55   A    
C19   H24   S    
C8    C56   A    
Cr6   O19   S    
C61   H38   S    
C63   H44   S    
C50   C54   A    
C40   H8    S    
Cr2   O26   S    
C5    C53   A    
Cr5   O17   S    
Cr2   O7    S    
C22   H17   S    
C38   C42   A    
C5    C37   A    
C58   H29   S    
C42   C46   A    
Cr6   O22   S    
C27   O19   A    
C15   C16   S    
C3    C18   S    
C8    C36   A    
C9    C13   D    
C59   H33   S    
C9    C32   S    
C26   O18   A    
C11   C15   D    
C10   C31   S    
C25   O13   A    
C32   O4    A    
C20   C24   D    
C11   C30   S    
C28   O20   A    
C31   O3    A    
C5    C33   A    
C62   H42   S    
Cr3   O25   S    
C23   C24   S    
C6    C38   A    
C9    H14   S    
C13   C14   S    
C43   C59   S    
C40   C44   A    
C25   C34   S    
C57   H27   S    
C60   H34   S    
C35   C56   A    
C1    O5    A    
C21   C22   S    
C12   H15   S    
Cr3   O9    S    
C6    C54   A    
Cr5   O24   S    
Cr6   O18   S    
C39   H7    S    
C63   H45   S    
C44   C60   S    
C59   H32   S    
Cr1   O4    S    
C16   H11   S    
C12   C16   D    
C28   C35   S    
Cr4   O11   S    
C10   C14   D    
C58   H30   S    
C25   O17   A    
C39   C43   A    
C49   C61   S    
C27   O15   A    
C17   C21   D    
C6    C34   A    
C46   H2    S    
C19   C23   D    
C24   H19   S    
Cr4   O26   S    
C11   H16   S    
C28   O16   A    
C60   H36   S    
C10   H13   S    
C3    O11   A    
C26   C33   S    
C45   C49   A    
C1    O9    A    
C20   H23   S    
C18   H21   S    
C31   O23   A    
C3    O7    A    
C2    O6    A    
Cr5   O20   S    
C59   H31   S    
C32   O24   A    
C4    O8    A    
C4    C17   S    
Cr4   O10   S    
C38   H6    S    
Cr1   O8    S    
C62   H40   S    
C64   H48   S    
C30   O2    A    
Cr4   O15   S    
Cr5   O25   S    
C51   C63   S    
C60   H35   S    
C57   H25   S    
C33   C54   A    
C1    C20   S    
C7    C39   A    
Cr1   O5    S    
C30   O22   A    
C2    C19   S    
C18   C22   D    
Cr3   O16   S    
C7    C35   A    
C41   C57   S    
Cr4   O14   S    
C50   C62   S    
Cr2   O2    S    
C47   C51   A    
C42   C58   S    
C13   H10   S    
C27   C36   S    
C63   H43   S    
C46   C50   A    
C52   C64   S    
C17   H22   S    
C61   H39   S    
C64   H47   S    
C61   H37   S    
C36   C55   A    
C64   H46   S    
Cr1   O25   S    
Cr6   O23   S    
Cr2   O6    S    
C49   C53   A    
C37   H5    S    
C21   H18   S    
C2    O10   A    
C45   H1    S    
C51   C55   A    
C37   C41   A    
Cr5   O21   S    
Cr2   O3    S    
C29   O1    A    
Cr1   O1    S    
C48   C52   A    
C15   H12   S    
Cr6   O26   S    
C34   C53   A    
C62   H41   S    
Cr3   O12   S    
C41   C45   A    
C29   O21   A    
C8    C40   A    
C48   H4    S    
C58   H28   S    
C43   C47   A    
C47   H3    S    
C52   C56   A    
C26   O14   A    
C57   H26   S    
