data_mof_unit_pretest_1790.cif
_audit_creation_date              2012-10-26T17:42:41-0400
_audit_creation_method            fapswitch 2.2
_symmetry_space_group_name_H-M    P1
_symmetry_Int_Tables_number       1
_space_group_crystal_system       triclinic
_cell_length_a                    30.759302
_cell_length_b                    30.70363
_cell_length_c                    23.454568
_cell_angle_alpha                 89.999963
_cell_angle_beta                  130.540227
_cell_angle_gamma                 90.000016
_cell_volume                      16833.6598009

loop_
_atom_site_label
_atom_site_type_symbol
_atom_type_description
_atom_site_fract_x
_atom_site_fract_y
_atom_site_fract_z
_atom_type_partial_charge
C1    C     C_R   0.809102 0.809425 0.499734 0.541956
C2    C     C_1   0.516521 0.746983 0.033793 0.072527
C3    C     C_R   0.908143 0.092667 0.500939 0.021312
C4    C     C_R   0.649366 0.587401 0.535486 -0.058798
C5    C     C_R   0.357401 0.582146 0.485403 -0.049240
C6    C     C_R   0.142615 0.082151 0.514638 -0.049232
C7    C     C_R   0.850634 0.087401 0.464514 -0.058798
C8    C     C_3   0.698136 0.556060 0.579717 -0.246367
C9    C     C_3   0.305341 0.560188 0.417841 -0.231498
C10   C     C_3   0.194673 0.060210 0.582231 -0.231482
C11   C     C_3   0.801864 0.056060 0.420282 -0.246368
C12   C     C_3   0.733354 0.591974 0.579402 0.177796
C13   C     C_1   0.983479 0.246982 0.966206 0.072527
C14   C     C_3   0.270718 0.594709 0.419871 0.169247
C15   C     C_3   0.229297 0.094731 0.580199 0.169232
C16   C     C_3   0.766645 0.091975 0.420598 0.177796
C17   C     C_R   0.440812 0.559598 0.500256 0.544944
C18   C     C_R   0.559715 0.559062 0.499837 0.544915
C19   C     C_R   0.940285 0.059062 0.500163 0.544916
C20   C     C_R   0.059188 0.059598 0.499744 0.544944
C21   C     C_R   0.939809 0.941268 0.500125 0.533845
C22   C     C_R   0.060168 0.941336 0.499883 0.533657
C23   C     C_R   0.439832 0.441336 0.500116 0.533656
C24   C     C_1   0.016959 0.247032 0.033800 0.072506
C25   C     C_R   0.560191 0.441268 0.499875 0.533846
C26   C     C_R   0.821836 0.749746 0.644472 0.551709
C27   C     C_R   0.178215 0.749694 0.355504 0.546547
C28   C     C_R   0.321785 0.249694 0.644496 0.546552
C29   C     C_R   0.678164 0.249746 0.355528 0.551708
C30   C     C_R   0.432563 0.785677 0.847107 -0.165054
C31   C     C_R   0.567873 0.785743 0.152876 -0.167912
C32   C     C_R   0.932127 0.285743 0.847124 -0.167912
C33   C     C_R   0.067435 0.285676 0.152892 -0.165056
C34   C     C_R   0.392843 0.787044 0.768693 0.215522
C35   C     C_R   0.901242 0.842365 0.551044 -0.027672
C36   C     C_R   0.607901 0.787146 0.231327 0.216632
C37   C     C_R   0.892099 0.287145 0.768673 0.216633
C38   C     C_R   0.107155 0.287044 0.231306 0.215523
C39   C     C_R   0.364421 0.748591 0.727433 -0.003861
C40   C     C_R   0.635521 0.748568 0.272565 -0.003223
C41   C     C_R   0.864479 0.248567 0.727435 -0.003223
C42   C     C_R   0.135579 0.248590 0.272567 -0.003862
C43   C     C_R   0.376430 0.708925 0.766144 0.218261
C44   C     C_R   0.622720 0.708761 0.233888 0.213627
C45   C     C_R   0.877280 0.208760 0.766112 0.213627
C46   C     C_R   0.129591 0.835167 0.526344 -0.006065
C47   C     C_R   0.123570 0.208925 0.233857 0.218260
C48   C     C_R   0.414799 0.708407 0.845688 0.266537
C49   C     C_R   0.584182 0.708178 0.154320 0.264351
C50   C     C_R   0.915818 0.208177 0.845679 0.264351
C51   C     C_R   0.085201 0.208406 0.154312 0.266539
C52   C     C_3   0.241949 0.741429 0.276587 -0.100320
C53   C     C_3   0.758456 0.738738 0.723142 -0.100168
C54   C     C_3   0.741543 0.238740 0.276858 -0.100168
C55   C     C_3   0.258051 0.241417 0.723410 -0.100320
C56   C     C_3   0.340097 0.848909 0.724127 -0.078789
C57   C     C_R   0.370409 0.335167 0.473655 -0.006065
C58   C     C_3   0.658380 0.849997 0.269198 -0.091674
C59   C     C_3   0.841620 0.349996 0.730802 -0.091676
C60   C     C_3   0.159899 0.348910 0.275870 -0.078788
C61   C     C_3   0.717689 0.562006 0.472806 -0.075130
C62   C     C_3   0.259299 0.563637 0.502781 -0.075511
C63   C     C_3   0.240764 0.063634 0.497351 -0.075514
C64   C     C_3   0.782310 0.062006 0.527192 -0.075130
C65   C     C_3   0.383403 0.651211 0.712147 -0.106090
C66   C     C_3   0.614998 0.651612 0.288052 -0.106958
C67   C     C_3   0.885002 0.151612 0.711948 -0.106957
C68   C     C_R   0.598758 0.342365 0.448956 -0.027672
C69   C     C_3   0.116603 0.151210 0.287859 -0.106079
C70   C     C_R   0.841812 0.843504 0.500474 -0.045529
C71   C     C_R   0.154713 0.842602 0.494873 -0.056181
C72   C     C_R   0.345287 0.342602 0.505127 -0.056180
C73   C     C_R   0.190242 0.809411 0.499181 0.531777
C74   C     C_R   0.658188 0.343504 0.499526 -0.045529
C75   C     C_R   0.813885 0.880715 0.455997 -0.083905
C76   C     C_R   0.144238 0.882241 0.457931 -0.080464
C77   C     C_R   0.355762 0.382241 0.542069 -0.080462
C78   C     C_R   0.686115 0.380715 0.544003 -0.083905
C79   C     C_R   0.844501 0.913831 0.454729 0.219017
C80   C     C_R   0.113839 0.915701 0.459187 0.223684
C81   C     C_R   0.386161 0.415700 0.540813 0.223684
C82   C     C_R   0.655499 0.413831 0.545272 0.219017
C83   C     C_R   0.904977 0.909847 0.501006 0.030038
C84   C     C_R   0.309758 0.309411 0.500819 0.531777
C85   C     C_R   0.093994 0.909059 0.498955 0.036488
C86   C     C_R   0.406006 0.409059 0.501045 0.036490
C87   C     C_R   0.595023 0.409847 0.498994 0.030038
C88   C     C_R   0.932239 0.874892 0.551021 -0.042995
C89   C     C_R   0.101123 0.868210 0.530187 -0.035606
C90   C     C_R   0.398876 0.368210 0.469813 -0.035606
C91   C     C_R   0.567760 0.374892 0.448979 -0.042994
C92   C     C_3   0.975699 0.843364 0.565458 0.103144
C93   C     C_3   0.125817 0.855521 0.607954 0.109042
C94   C     C_3   0.374182 0.355522 0.392045 0.109043
C95   C     C_R   0.690898 0.309425 0.500266 0.541956
C96   C     C_3   0.524301 0.343364 0.434542 0.103145
C97   C     C_3   0.941439 0.807520 0.565611 0.194349
C98   C     C_3   0.156384 0.818667 0.602988 0.181708
C99   C     C_3   0.343615 0.318668 0.397011 0.181709
C100  C     C_3   0.558561 0.307520 0.434389 0.194348
C101  C     C_R   0.677665 0.749716 0.355602 0.568196
C102  C     C_R   0.322365 0.749681 0.644391 0.568416
C103  C     C_R   0.177634 0.249681 0.355609 0.568415
C104  C     C_R   0.822334 0.249716 0.644398 0.568195
C105  C     C_R   0.041961 0.733503 0.154880 -0.125620
C106  C     C_R   0.443001 0.746943 0.885390 -0.014970
C107  C     C_R   0.958641 0.734674 0.844930 -0.127385
C108  C     C_R   0.541359 0.234674 0.155070 -0.127385
C109  C     C_R   0.458040 0.233506 0.845120 -0.125617
C110  C     C_R   0.081365 0.733931 0.233238 -0.168561
C111  C     C_R   0.919171 0.735102 0.766574 -0.166521
C112  C     C_R   0.580829 0.235102 0.233426 -0.166520
C113  C     C_R   0.418636 0.233934 0.766762 -0.168554
C114  C     C_R   0.137534 0.748982 0.272430 0.017894
C115  C     C_R   0.862617 0.749108 0.727500 0.016035
C116  C     C_R   0.637383 0.249108 0.272500 0.016034
C117  C     C_R   0.556605 0.746847 0.114604 -0.015090
C118  C     C_R   0.362466 0.248982 0.727569 0.017898
C119  C     C_R   0.154105 0.762613 0.231304 0.271653
C120  C     C_R   0.845751 0.761744 0.768674 0.270139
C121  C     C_R   0.654248 0.261745 0.231326 0.270139
C122  C     C_R   0.345893 0.262609 0.768695 0.271653
C123  C     C_R   0.113895 0.762701 0.152600 -0.085026
C124  C     C_R   0.886001 0.761837 0.847373 -0.085611
C125  C     C_R   0.613998 0.261838 0.152627 -0.085610
C126  C     C_R   0.386103 0.262696 0.847399 -0.085026
C127  C     C_R   0.058049 0.748064 0.114455 -0.009266
C128  C     C_R   0.943394 0.246846 0.885396 -0.015090
C129  C     C_R   0.942217 0.748194 0.885436 -0.010614
C130  C     C_R   0.557783 0.248194 0.114564 -0.010614
C131  C     C_R   0.441950 0.248064 0.885544 -0.009266
C132  C     C_1   0.017235 0.748029 0.033751 -0.014994
C133  C     C_1   0.983051 0.748071 0.966138 -0.015152
C134  C     C_1   0.516949 0.248071 0.033861 -0.015151
C135  C     C_1   0.482764 0.248029 0.966249 -0.014993
C136  C     C_R   0.679760 0.618408 0.533899 0.013918
C137  C     C_R   0.326553 0.613568 0.488056 0.009273
C138  C     C_R   0.173464 0.113573 0.511984 0.009283
C139  C     C_R   0.056998 0.246942 0.114610 -0.014970
C140  C     C_R   0.820239 0.118408 0.466100 0.013919
C141  C     C_R   0.656260 0.657913 0.498065 -0.006331
C142  C     C_R   0.345283 0.656776 0.505490 -0.025803
C143  C     C_R   0.154719 0.156775 0.494512 -0.025797
C144  C     C_R   0.843740 0.157913 0.501935 -0.006332
C145  C     C_R   0.597879 0.664903 0.460848 -0.164695
C146  C     C_R   0.400238 0.666466 0.531276 -0.159813
C147  C     C_R   0.099752 0.166459 0.468687 -0.159821
C148  C     C_R   0.902121 0.164903 0.539152 -0.164695
C149  C     C_R   0.690340 0.690719 0.499376 0.524754
C150  C     C_1   0.483041 0.747033 0.966200 0.072506
C151  C     C_R   0.309743 0.690470 0.500620 0.519653
C152  C     C_R   0.190257 0.190470 0.499380 0.519657
C153  C     C_R   0.809660 0.190719 0.500624 0.524754
C154  C     C_R   0.565597 0.632125 0.460496 -0.151118
C155  C     C_R   0.432189 0.634259 0.530675 -0.148173
C156  C     C_R   0.067800 0.134252 0.469286 -0.148172
C157  C     C_R   0.934403 0.132125 0.539505 -0.151117
C158  C     C_R   0.591857 0.592667 0.499061 0.021312
C159  C     C_R   0.408644 0.592701 0.502269 0.020248
C160  C     C_R   0.091356 0.092701 0.497731 0.020237
Cu1   Cu    Cu3+1 0.780910 0.719080 0.500000 1.038867
Cu2   Cu    Cu3+1 0.537290 0.500000 0.574530 0.976468
Cu3   Cu    Cu3+1 0.962710 0.000000 0.425470 0.976467
Cu4   Cu    Cu3+1 0.037290 1.000000 0.574530 0.930825
Cu5   Cu    Cu3+1 0.219090 0.719080 0.500000 1.032286
Cu6   Cu    Cu3+1 0.280910 0.219080 0.500000 1.032275
Cu7   Cu    Cu3+1 0.719090 0.219080 0.500000 1.038866
Cu8   Cu    Cu3+1 0.719070 0.780890 0.500010 1.010193
Cu9   Cu    Cu3+1 0.280930 0.780890 0.499990 1.005122
Cu10  Cu    Cu3+1 0.219070 0.280890 0.500010 1.005131
Cu11  Cu    Cu3+1 0.780930 0.280890 0.499990 1.010193
Cu12  Cu    Cu3+1 0.462710 0.500000 0.425470 0.930828
H1    H     H_    0.454774 0.815252 0.878183 0.140770
H2    H     H_    0.933132 0.724980 0.736480 0.163704
H3    H     H_    0.137804 0.120618 0.319583 0.142843
H4    H     H_    0.401245 0.646980 0.851316 0.363823
H5    H     H_    0.596622 0.646467 0.148707 0.362238
H6    H     H_    0.903377 0.146466 0.851292 0.362237
H7    H     H_    0.098757 0.146980 0.148685 0.363824
H8    H     H_    0.839312 0.971729 0.416705 0.333863
H9    H     H_    0.094683 0.977604 0.440146 0.332594
H10   H     H_    0.405318 0.477604 0.559855 0.332589
H11   H     H_    0.660688 0.471729 0.583295 0.333862
H12   H     H_    0.994418 0.864666 0.506333 0.323541
H13   H     H_    0.566868 0.224979 0.263520 0.163704
H14   H     H_    0.146085 0.900915 0.678655 0.339359
H15   H     H_    0.353914 0.400915 0.321344 0.339359
H16   H     H_    0.505582 0.364666 0.493666 0.323542
H17   H     H_    0.432380 0.222985 0.736773 0.146636
H18   H     H_    0.126551 0.773920 0.121428 0.130690
H19   H     H_    0.873091 0.772256 0.878604 0.130966
H20   H     H_    0.626908 0.272257 0.121396 0.130966
H21   H     H_    0.373445 0.273912 0.878571 0.130690
H22   H     H_    0.577189 0.695165 0.431474 0.137036
H23   H     H_    0.417770 0.698999 0.549811 0.143211
H24   H     H_    0.082210 0.198987 0.450122 0.143201
H25   H     H_    0.546122 0.815412 0.121761 0.139131
H26   H     H_    0.922812 0.195165 0.568526 0.137037
H27   H     H_    0.520738 0.637759 0.431208 0.124119
H28   H     H_    0.473869 0.642288 0.548941 0.119548
H29   H     H_    0.026110 0.142277 0.450990 0.119565
H30   H     H_    0.979262 0.137759 0.568792 0.124121
H31   H     H_    0.712113 0.549929 0.636203 0.130441
H32   H     H_    0.302135 0.562947 0.367945 0.120078
H33   H     H_    0.197858 0.062983 0.632109 0.120078
H34   H     H_    0.787886 0.049929 0.363797 0.130441
H35   H     H_    0.689733 0.526406 0.547119 0.156811
H36   H     H_    0.953878 0.315411 0.878239 0.139131
H37   H     H_    0.300166 0.526583 0.430251 0.164299
H38   H     H_    0.199868 0.026602 0.569855 0.164280
H39   H     H_    0.810266 0.026406 0.452880 0.156812
H40   H     H_    0.766417 0.606661 0.635718 0.126052
H41   H     H_    0.247989 0.617204 0.371008 0.124582
H42   H     H_    0.252005 0.117238 0.629043 0.124562
H43   H     H_    0.733583 0.106661 0.364281 0.126052
H44   H     H_    0.767804 0.883387 0.419892 0.145067
H45   H     H_    0.161331 0.887866 0.430188 0.165775
H46   H     H_    0.338669 0.387866 0.569813 0.165775
H47   H     H_    0.045223 0.315251 0.121816 0.140769
H48   H     H_    0.732196 0.383387 0.580108 0.145067
H49   H     H_    0.019551 0.848562 0.620039 0.123207
H50   H     H_    0.093587 0.844460 0.612222 0.129970
H51   H     H_    0.406412 0.344461 0.387777 0.129968
H52   H     H_    0.480449 0.348562 0.379960 0.123207
H53   H     H_    0.921304 0.783538 0.519100 0.204396
H54   H     H_    0.203824 0.820881 0.643640 0.168349
H55   H     H_    0.296175 0.320882 0.356359 0.168350
H56   H     H_    0.578696 0.283538 0.480900 0.204396
H57   H     H_    0.985133 0.810336 0.674471 0.321942
H58   H     H_    0.998808 0.722043 0.125812 0.132128
H59   H     H_    0.094307 0.776296 0.561747 0.343382
H60   H     H_    0.405691 0.276297 0.438251 0.343381
H61   H     H_    0.514867 0.310336 0.325529 0.321942
H62   H     H_    0.225226 0.728176 0.221418 0.105929
H63   H     H_    0.243954 0.715270 0.311145 0.106486
H64   H     H_    0.286337 0.752760 0.306704 0.151565
H65   H     H_    0.775539 0.725018 0.778206 0.105942
H66   H     H_    0.757094 0.713138 0.688356 0.106692
H67   H     H_    0.713793 0.749273 0.693136 0.152845
H68   H     H_    0.724462 0.225020 0.221795 0.105942
H69   H     H_    0.002086 0.724011 0.873930 0.135227
H70   H     H_    0.742907 0.213139 0.311645 0.106692
H71   H     H_    0.786206 0.249275 0.306863 0.152845
H72   H     H_    0.274775 0.228162 0.778579 0.105930
H73   H     H_    0.256049 0.215260 0.688852 0.106477
H74   H     H_    0.213662 0.252745 0.693293 0.151567
H75   H     H_    0.352559 0.856698 0.779414 0.120051
H76   H     H_    0.299160 0.830466 0.688509 0.106404
H77   H     H_    0.332710 0.880176 0.695310 0.157925
H78   H     H_    0.641398 0.857881 0.211604 0.118957
H79   H     H_    0.699718 0.832170 0.300863 0.110563
H80   H     H_    0.497914 0.224010 0.126070 0.135227
H81   H     H_    0.666943 0.881300 0.298487 0.157403
H82   H     H_    0.858602 0.357880 0.788396 0.118957
H83   H     H_    0.800282 0.332169 0.699137 0.110563
H84   H     H_    0.833057 0.381299 0.701514 0.157403
H85   H     H_    0.147435 0.356699 0.220581 0.120049
H86   H     H_    0.200836 0.330467 0.311486 0.106405
H87   H     H_    0.167285 0.380176 0.304686 0.157928
H88   H     H_    0.673453 0.575044 0.437207 0.105208
H89   H     H_    0.717763 0.526228 0.479530 0.127022
H90   H     H_    0.733100 0.567828 0.441872 0.151783
H91   H     H_    0.501194 0.222050 0.874188 0.132129
H92   H     H_    0.274503 0.592232 0.540496 0.143368
H93   H     H_    0.294966 0.540503 0.525202 0.131276
H94   H     H_    0.227243 0.546449 0.502081 0.149041
H95   H     H_    0.225553 0.092216 0.459610 0.143373
H96   H     H_    0.205107 0.040492 0.474937 0.131271
H97   H     H_    0.272839 0.046448 0.498085 0.149030
H98   H     H_    0.826547 0.075044 0.562792 0.105208
H99   H     H_    0.782236 0.026228 0.520468 0.127022
H100  H     H_    0.766899 0.067827 0.558127 0.151783
H101  H     H_    0.426691 0.642564 0.765269 0.131114
H102  H     H_    0.067623 0.722978 0.263227 0.146638
H103  H     H_    0.387111 0.672481 0.677057 0.111753
H104  H     H_    0.362208 0.620616 0.680431 0.142811
H105  H     H_    0.571422 0.643463 0.235004 0.127441
H106  H     H_    0.612013 0.673099 0.323609 0.111317
H107  H     H_    0.635560 0.620799 0.319297 0.138886
H108  H     H_    0.928578 0.143463 0.764996 0.127441
H109  H     H_    0.887988 0.173099 0.676390 0.111317
H110  H     H_    0.864440 0.120799 0.680702 0.138886
H111  H     H_    0.073317 0.142558 0.234739 0.131111
H112  H     H_    0.112892 0.172482 0.322943 0.111742
O1    O     O_R   0.821190 0.768980 0.500000 -0.501071
O2    O     O_R   0.076580 0.954920 0.562940 -0.504765
O3    O     O_R   0.423420 0.454920 0.437060 -0.504766
O4    O     O_R   0.576580 0.454920 0.562940 -0.497782
O5    O     O_R   0.986330 0.954940 0.562940 -0.522736
O6    O     O_R   0.013670 0.954940 0.437060 -0.498291
O7    O     O_R   0.486330 0.454940 0.562940 -0.498292
O8    O     O_R   0.513670 0.454940 0.437060 -0.522736
O9    O     O_R   0.768960 0.821170 0.500020 -0.512725
O10   O     O_R   0.231040 0.821170 0.499980 -0.519277
O11   O     O_R   0.268960 0.321170 0.500020 -0.519276
O12   O     O_R   0.178810 0.768980 0.500000 -0.479562
O13   O     O_R   0.731040 0.321170 0.499980 -0.512724
O14   O     O_R   0.721730 0.723890 0.391250 -0.471468
O15   O     O_R   0.278270 0.723890 0.608750 -0.460517
O16   O     O_R   0.221730 0.223890 0.391250 -0.460516
O17   O     O_R   0.778270 0.223890 0.608750 -0.471468
O18   O     O_R   0.669500 0.776090 0.391270 -0.474565
O19   O     O_R   0.330500 0.776090 0.608730 -0.473223
O20   O     O_R   0.169500 0.276090 0.391270 -0.473223
O21   O     O_R   0.830500 0.276090 0.608730 -0.474565
O22   O     O_R   0.731010 0.678810 0.499990 -0.475900
O23   O     O_R   0.321190 0.268980 0.500000 -0.479564
O24   O     O_R   0.268990 0.678810 0.500010 -0.498796
O25   O     O_R   0.231010 0.178810 0.499990 -0.498804
O26   O     O_R   0.768990 0.178810 0.500010 -0.475899
O27   O     O_R   0.678790 0.731000 0.500010 -0.526806
O28   O     O_R   0.321210 0.731000 0.499990 -0.522825
O29   O     O_R   0.178790 0.231000 0.500010 -0.522818
O30   O     O_R   0.821210 0.231000 0.499990 -0.526806
O31   O     O_R   0.830470 0.723890 0.608750 -0.512098
O32   O     O_R   0.169530 0.723890 0.391250 -0.521514
O33   O     O_R   0.330470 0.223890 0.608750 -0.521506
O34   O     O_R   0.678810 0.268980 0.500000 -0.501071
O35   O     O_R   0.669530 0.223890 0.391250 -0.512098
O36   O     O_R   0.778250 0.776080 0.608760 -0.457597
O37   O     O_R   0.221750 0.776080 0.391240 -0.457747
O38   O     O_R   0.278250 0.276080 0.608760 -0.457749
O39   O     O_R   0.721750 0.276080 0.391240 -0.457597
O40   O     O_R   0.423360 0.545090 0.437020 -0.512686
O41   O     O_R   0.576640 0.545090 0.562980 -0.514866
O42   O     O_R   0.923360 0.045090 0.437020 -0.514867
O43   O     O_R   0.076640 0.045090 0.562980 -0.512687
O44   O     O_3   0.970993 0.787416 0.636027 -0.694793
O45   O     O_R   0.486270 0.545120 0.562900 -0.507065
O46   O     O_3   0.136644 0.776973 0.601647 -0.673187
O47   O     O_3   0.363354 0.276974 0.398351 -0.673187
O48   O     O_3   0.529007 0.287417 0.363973 -0.694792
O49   O     O_3   0.209017 0.777108 0.267395 -0.541639
O50   O     O_3   0.790464 0.775218 0.732622 -0.542236
O51   O     O_3   0.709535 0.275220 0.267378 -0.542235
O52   O     O_3   0.290979 0.277099 0.732604 -0.541638
O53   O     O_3   0.383753 0.825969 0.732760 -0.537547
O54   O     O_3   0.618378 0.826226 0.267579 -0.536922
O55   O     O_3   0.881622 0.326226 0.732421 -0.536921
O56   O     O_R   0.513730 0.545120 0.437100 -0.510884
O57   O     O_3   0.116244 0.325968 0.267239 -0.537547
O58   O     O_3   0.756229 0.582388 0.543856 -0.529509
O59   O     O_3   0.232482 0.577063 0.428777 -0.544050
O60   O     O_3   0.267556 0.077083 0.571335 -0.544056
O61   O     O_3   0.743770 0.082388 0.456143 -0.529509
O62   O     O_3   0.349802 0.670829 0.726383 -0.554987
O63   O     O_3   0.648824 0.670593 0.273701 -0.556900
O64   O     O_3   0.851176 0.170593 0.726298 -0.556901
O65   O     O_3   0.150202 0.170829 0.273618 -0.554984
O66   O     O_3   0.426065 0.670938 0.886067 -0.657798
O67   O     O_R   0.986270 0.045120 0.562900 -0.510884
O68   O     O_3   0.572178 0.670540 0.113954 -0.659344
O69   O     O_3   0.927821 0.170539 0.886046 -0.659344
O70   O     O_3   0.073937 0.170937 0.113934 -0.657796
O71   O     O_3   0.813260 0.948181 0.406424 -0.713904
O72   O     O_3   0.107707 0.954545 0.424828 -0.699011
O73   O     O_3   0.392294 0.454545 0.575173 -0.699023
O74   O     O_3   0.686740 0.448181 0.593576 -0.713903
O75   O     O_3   0.973185 0.839374 0.503800 -0.709197
O76   O     O_3   0.164800 0.886562 0.661634 -0.704256
O77   O     O_3   0.335199 0.386564 0.338365 -0.704255
O78   O     O_R   0.013730 0.045120 0.437100 -0.507069
O79   O     O_3   0.526814 0.339374 0.496199 -0.709197
O80   O     O_R   0.923420 0.954920 0.437060 -0.497782

loop_
_geom_bond_atom_site_label_1
_geom_bond_atom_site_label_2
_ccdc_geom_bond_type
C105  C110  A    
C27   O37   A    
C87   C91   A    
Cu7   O35   S    
C142  C146  A    
C28   O38   A    
Cu8   O36   S    
C107  C129  A    
C82   O74   S    
C52   H62   S    
C56   H76   S    
Cu6   O25   S    
C54   H70   S    
C10   H33   S    
C154  C158  A    
C138  C143  A    
C15   H42   S    
H5    O68   S    
C156  H29   S    
C82   C87   A    
C60   H86   S    
Cu10  O38   S    
C17   O40   A    
C22   O2    A    
C91   C96   S    
C110  H102  S    
C21   C83   S    
C60   O57   S    
C3    C19   S    
C11   H34   S    
H10   O73   S    
C81   C86   A    
C141  C145  A    
C83   C88   A    
C46   C98   S    
C65   H104  S    
Cu8   O18   S    
C95   O13   A    
C130  C134  S    
H4    O66   S    
C2    C117  S    
Cu5   O12   S    
Cu5   Cu9   S    
C103  O16   A    
C21   O80   A    
C57   C90   A    
C59   H83   S    
Cu2   O7    S    
C86   C90   A    
C71   C73   S    
C105  C127  A    
H61   O48   S    
Cu7   Cu11  S    
Cu11  O30   S    
C155  C159  A    
C14   H41   S    
C15   O60   S    
C142  C151  S    
C16   H43   S    
C29   O35   A    
C136  C141  A    
C63   O60   S    
C78   C82   A    
C14   C137  S    
C76   H45   S    
C120  O50   S    
C56   H77   S    
Cu1   O31   S    
C44   O63   S    
C145  H22   S    
C72   C84   S    
C64   H98   S    
C129  C133  S    
C52   H64   S    
Cu5   O24   S    
C26   O36   A    
Cu6   O23   S    
C92   O75   S    
Cu1   O22   S    
C29   O39   A    
C1    C70   S    
C36   O54   S    
C84   O23   A    
C6    C160  A    
Cu9   O28   S    
C5    C137  A    
C119  C123  A    
C104  O21   A    
Cu8   O27   S    
C99   O47   S    
C105  H58   S    
C25   O4    A    
C61   H89   S    
C62   H93   S    
C28   C118  S    
C126  H21   S    
C7    C140  A    
C45   C50   A    
C33   C139  A    
C93   O76   S    
C65   O62   S    
C20   C160  S    
C41   C45   A    
C31   C36   A    
C107  H69   S    
C69   H3    S    
C61   H88   S    
C75   C79   A    
C124  H19   S    
H12   O75   S    
C2    C150  T    
C79   C83   A    
C137  C142  A    
C122  C126  A    
C106  C150  S    
Cu2   O41   S    
C67   H109  S    
C42   C103  S    
H57   O44   S    
C46   C89   A    
C5    C9    S    
C100  O48   S    
Cu4   O67   S    
Cu8   O9    S    
C108  H80   S    
C96   O79   S    
C23   O7    A    
Cu2   O45   S    
C68   C74   A    
C57   C99   S    
C118  C122  A    
C22   C85   S    
C50   O69   S    
C64   H100  S    
C40   C101  S    
C10   H38   S    
C49   C117  A    
C32   H36   S    
C62   O59   S    
C110  C114  A    
C108  C130  A    
C114  C119  A    
C8    C12   S    
H59   O46   S    
H11   O74   S    
C58   H79   S    
C16   C140  S    
Cu1   O14   S    
C92   C97   S    
C33   H47   S    
Cu7   O26   S    
C30   C34   A    
C65   H101  S    
C34   C39   A    
C156  C160  A    
C53   H65   S    
C112  H13   S    
C19   O42   A    
Cu12  O8    S    
C98   O46   S    
C73   O10   A    
C8    H35   S    
C68   C100  S    
C121  C125  A    
C9    H32   S    
Cu11  O21   S    
C123  C127  A    
Cu7   O17   S    
C147  H24   S    
C32   C37   A    
C123  H18   S    
C101  O18   A    
C93   H50   S    
C145  C154  A    
C103  O20   A    
C14   O59   S    
Cu6   Cu10  S    
C69   O65   S    
C58   O54   S    
H9    O72   S    
C66   H107  S    
C112  C116  A    
Cu10  O11   S    
C39   C102  S    
C107  C111  A    
C76   C80   A    
Cu5   O15   S    
C18   O56   A    
Cu6   O16   S    
C134  C135  T    
C34   O53   S    
C26   O31   A    
C41   C104  S    
Cu4   O2    S    
C28   O33   A    
C32   C128  A    
Cu9   O19   S    
C16   O61   S    
Cu10  O20   S    
C80   O72   S    
C96   C100  S    
C148  C157  A    
C89   C93   S    
C17   C159  S    
Cu3   O6    S    
H14   O76   S    
C121  O51   S    
C38   O57   S    
C40   C44   A    
Cu2   Cu12  S    
C12   C136  S    
C70   C75   A    
C3    C157  A    
C33   C38   A    
C146  H23   S    
C99   H55   S    
Cu12  O56   S    
C51   C139  A    
C97   H53   S    
C104  O17   A    
C65   H103  S    
C111  H2    S    
C53   H67   S    
C1    O1    A    
C151  O24   A    
C73   O12   A    
C119  O49   S    
C92   H49   S    
C3    C7    A    
C71   C76   A    
C69   H112  S    
C52   O49   S    
C25   C87   S    
C66   H105  S    
Cu11  O39   S    
C100  H56   S    
C26   C115  S    
C78   H48   S    
C102  O19   A    
C48   C106  A    
C146  C155  A    
C23   C86   S    
C109  C131  A    
C66   O63   S    
C63   H96   S    
C4    C8    S    
C4    C136  A    
C53   O50   S    
C49   O68   S    
Cu9   O10   S    
H15   O77   S    
C67   O64   S    
C90   C94   S    
C24   C139  S    
C47   O65   S    
C56   H75   S    
C25   O8    A    
H60   O47   S    
C116  C121  A    
C62   H92   S    
C84   O11   A    
C85   C89   A    
C47   C51   A    
Cu3   O80   S    
C108  C112  A    
Cu3   O42   S    
C60   H85   S    
C143  C147  A    
C9    C14   S    
C80   C85   A    
C18   C158  S    
C11   C16   S    
C77   C81   A    
Cu6   O33   S    
H7    O70   S    
C56   O53   S    
C147  C156  A    
C46   C71   A    
C48   O66   S    
Cu10  O29   S    
C79   O71   S    
C143  C152  S    
C21   O5    A    
C122  O52   S    
C31   H25   S    
C153  O26   A    
C45   O64   S    
C59   H84   S    
C8    H31   S    
C140  C144  A    
C6    C10   S    
C20   O43   A    
C1    O9    A    
C113  H17   S    
C18   O41   A    
C101  O14   A    
C152  O29   A    
C54   H71   S    
C17   O45   A    
C154  H27   S    
C64   O61   S    
C124  C129  A    
C125  H20   S    
C20   O78   A    
C57   C72   A    
C63   H97   S    
Cu12  O40   S    
C74   C78   A    
Cu7   O34   S    
C61   O58   S    
C95   O34   A    
C62   H94   S    
C52   H63   S    
C23   O3    A    
C44   C49   A    
H8    O71   S    
Cu3   Cu4   S    
C144  C148  A    
Cu11  O13   S    
C141  C149  S    
Cu3   O78   S    
C7    C11   S    
C94   C99   S    
C60   H87   S    
C61   H90   S    
C38   C42   A    
C131  C135  S    
C10   C15   S    
Cu4   O5    S    
C77   H46   S    
Cu5   O32   S    
C75   H44   S    
C68   C91   A    
C19   O67   A    
C58   H81   S    
C54   O51   S    
C144  C153  S    
C127  C132  S    
C31   C117  A    
C11   H39   S    
C13   C128  S    
C125  C130  A    
C4    C158  A    
C88   C92   S    
C35   C70   A    
C9    H37   S    
C132  C133  T    
C96   H52   S    
C109  H91   S    
C43   C48   A    
C30   H1    S    
C12   O58   S    
C15   C138  S    
C151  O28   A    
C30   C106  A    
C59   H82   S    
C37   C41   A    
C55   O52   S    
C67   H110  S    
Cu1   O1    S    
Cu1   Cu8   S    
C36   C40   A    
C12   H40   S    
C102  O15   A    
Cu12  O3    S    
C37   O55   S    
C39   C43   A    
C55   H74   S    
C5    C159  A    
C13   C24   T    
C6    C138  A    
C94   O77   S    
C72   C77   A    
C64   H99   S    
C35   C88   A    
Cu4   O43   S    
C81   O73   S    
C97   O44   S    
C29   C116  S    
C59   O55   S    
C27   O32   A    
C94   H51   S    
C58   H78   S    
C149  O27   A    
C149  O22   A    
Cu9   O37   S    
C74   C95   S    
C53   H66   S    
C109  C113  A    
C51   O70   S    
C54   H68   S    
C55   H72   S    
C148  H26   S    
C69   H111  S    
H16   O79   S    
C126  C131  A    
C66   H106  S    
C42   C47   A    
C22   O6    A    
C43   O62   S    
C153  O30   A    
C152  O25   A    
C113  C118  A    
C27   C114  S    
C50   C128  A    
C115  C120  A    
C55   H73   S    
H6    O69   S    
C111  C115  A    
C157  H30   S    
C67   H108  S    
C35   C97   S    
C63   H95   S    
C93   C98   S    
C155  H28   S    
C120  C124  A    
C98   H54   S    
Cu2   O4    S    
