data_mof_unit_pretest_1048.cif
_audit_creation_date              2012-12-11T14:49:28-0500
_audit_creation_method            fapswitch 2.2
_symmetry_space_group_name_H-M    P1
_symmetry_Int_Tables_number       1
_space_group_crystal_system       triclinic
_cell_length_a                    17.224372
_cell_length_b                    16.666894
_cell_length_c                    19.62322
_cell_angle_alpha                 117.519131
_cell_angle_beta                  63.273445
_cell_angle_gamma                 100.592533
_cell_volume                      4460.19140072

loop_
_atom_site_label
_atom_site_type_symbol
_atom_type_description
_atom_site_fract_x
_atom_site_fract_y
_atom_site_fract_z
_atom_type_partial_charge
C1    C     C_R   0.036857 0.760818 0.014764 0.478617
C2    C     C_R   0.249206 0.534426 0.826730 -0.190923
C3    C     C_3   0.679132 0.763629 0.969431 -1.029740
C4    C     C_3   0.327393 0.698723 0.045930 0.242519
C5    C     C_3   0.355971 0.781294 0.026959 -0.256020
C6    C     C_3   0.395975 0.851195 0.085423 -0.992023
C7    C     C_R   0.184052 0.485891 0.084366 0.711608
C8    C     C_R   0.751150 0.459016 0.170550 -0.165039
C9    C     C_R   0.981890 0.341162 0.762895 0.022942
C10   C     C_R   0.257074 0.533533 0.060878 -0.245278
C11   C     C_R   0.931309 0.266768 0.766253 0.000449
C12   C     C_R   0.252628 0.484318 0.746016 -0.048397
C13   C     C_R   0.029322 0.221567 0.000801 -0.006326
C14   C     C_R   0.871252 0.118302 0.707755 -0.157163
C15   C     C_R   0.897841 0.202027 0.705330 0.098859
C16   C     C_R   0.745188 0.506598 0.251594 -0.165284
C17   C     C_R   0.912237 0.213684 0.634439 -0.216378
C18   C     C_R   0.920909 0.137680 0.559316 -0.039055
C19   C     C_R   0.915562 0.051190 0.557486 -0.006731
C20   C     C_R   0.815002 0.508982 0.914171 0.708356
C21   C     C_R   0.884807 0.041683 0.632986 0.062282
C22   C     C_R   0.944768 0.145601 0.483881 0.565440
C23   C     C_R   0.979022 0.069486 0.406648 -0.342832
C24   C     C_R   0.983635 0.985308 0.404558 0.091647
C25   C     C_R   0.948295 0.975244 0.480180 -0.015350
C26   C     C_R   0.950426 0.890240 0.478746 -0.098203
C27   C     C_R   0.739693 0.467228 0.945137 -0.112413
C28   C     C_R   0.912864 0.880325 0.554289 0.728945
C29   C     C_R   0.879394 0.955991 0.631269 -0.342825
C30   C     C_R   0.021619 0.910558 0.327953 -0.173793
C31   C     C_R   0.024233 0.825998 0.326264 0.129770
C32   C     C_R   0.007094 0.662466 0.241745 -0.217428
C33   C     C_R   0.990168 0.816816 0.401804 -0.182785
C34   C     C_R   0.406871 0.452407 0.651157 0.738225
C35   C     C_R   0.325027 0.480070 0.670582 -0.077433
C36   C     C_R   0.311570 0.509473 0.620607 -0.209991
C37   C     C_R   0.380224 0.511008 0.549386 0.069897
C38   C     C_R   0.042760 0.744910 0.247188 -0.188948
C39   C     C_R   0.463583 0.483694 0.528841 -0.031020
C40   C     C_R   0.477117 0.453823 0.579662 -0.148910
C41   C     C_R   0.366547 0.540580 0.499444 -0.305912
C42   C     C_R   0.436263 0.546070 0.429440 0.551926
C43   C     C_R   0.519844 0.518521 0.408152 -0.021328
C44   C     C_R   0.749631 0.434293 0.992660 -0.154837
C45   C     C_R   0.533407 0.487212 0.458103 -0.021921
C46   C     C_R   0.617080 0.459997 0.437533 -0.062312
C47   C     C_R   0.630338 0.430188 0.487660 0.709982
C48   C     C_R   0.560413 0.427107 0.558583 -0.281509
C49   C     C_R   0.248092 0.568687 0.013059 0.449985
C50   C     C_R   0.590617 0.522807 0.338706 -0.198593
C51   C     C_R   0.672738 0.499178 0.321375 0.086222
C52   C     C_R   0.686293 0.464807 0.367817 -0.148333
C53   C     C_R   0.656217 0.481795 0.953481 -0.043252
C54   C     C_R   0.338182 0.520460 0.057957 -0.087317
C55   C     C_R   0.432254 0.537315 0.123693 0.576424
C56   C     C_R   0.069911 0.742725 0.168765 0.742990
C57   C     C_R   0.349148 0.544328 0.131309 0.435028
C58   C     C_R   0.407053 0.488421 0.978235 -0.260468
C59   C     C_R   0.489917 0.487310 0.970630 0.051948
C60   C     C_R   0.917682 0.263846 0.839428 -0.137871
C61   C     C_R   0.503580 0.513946 0.044062 -0.286396
C62   C     C_R   0.588259 0.515821 0.035398 0.561638
C63   C     C_R   0.642607 0.456918 0.881668 -0.182163
C64   C     C_R   0.559086 0.460591 0.890368 -0.137988
C65   C     C_R   0.827814 0.184333 0.147199 -0.021976
C66   C     C_R   0.960025 0.869065 0.002642 0.057526
C67   C     C_R   0.907077 0.959440 0.963211 0.840125
C68   C     C_R   0.827807 0.532958 0.248432 0.575830
C69   C     C_R   0.945004 0.879428 0.942527 -0.364114
C70   C     C_R   0.946198 0.943712 0.080615 -0.169678
C71   C     C_R   0.169340 0.464615 0.751886 0.704527
C72   C     C_R   0.911864 0.026250 0.101102 -0.135938
C73   C     C_R   0.887447 0.032572 0.043599 -0.341155
C74   C     C_R   0.843282 0.111473 0.068516 0.737880
C75   C     C_R   0.856217 0.180193 0.201717 -0.443011
C76   C     C_R   0.899573 0.102084 0.178785 0.604848
C77   C     C_R   0.951269 0.694510 0.947467 0.474020
C78   C     C_R   0.982398 0.778781 0.987912 -0.274262
C79   C     C_3   0.158750 0.844261 0.981138 0.241774
C80   C     C_3   0.220463 0.763797 0.907900 -0.349017
C81   C     C_3   0.301644 0.794183 0.850707 -0.993130
C82   C     C_R   0.050937 0.306425 0.050420 -0.103902
C83   C     C_3   0.852904 0.254100 0.516738 0.149254
C84   C     C_3   0.820468 0.213921 0.446659 -0.290468
C85   C     C_3   0.721826 0.224579 0.483631 -0.862671
C86   C     C_3   0.439580 0.665287 0.400099 0.224559
C87   C     C_3   0.355633 0.723309 0.459390 -0.304351
C88   C     C_3   0.372751 0.822311 0.475888 -0.998826
C89   C     C_3   0.616221 0.641405 0.137446 0.244986
C90   C     C_3   0.678563 0.667518 0.179963 -0.295510
C91   C     C_3   0.692913 0.769219 0.214900 -1.040983
C92   C     C_3   0.279677 0.665563 0.255924 0.206359
C93   C     C_R   0.974730 0.238445 0.973378 -0.052045
C94   C     C_3   0.195318 0.696730 0.336374 -0.200069
C95   C     C_3   0.192035 0.799038 0.388606 -1.017686
C96   C     C_3   0.003936 0.146519 0.230173 0.146068
C97   C     C_3   0.083002 0.081136 0.169388 -0.350081
C98   C     C_3   0.166638 0.128056 0.173519 -0.901133
C99   C     C_3   0.797307 0.654664 0.381679 0.200385
C100  C     C_3   0.787480 0.723173 0.353326 -0.412415
C101  C     C_3   0.739341 0.809579 0.429306 -0.935518
C102  C     C_3   0.816905 0.718873 0.961314 0.230127
C103  C     C_3   0.771320 0.723114 0.911647 -0.184884
F1    F     F_    0.144281 0.424370 0.687464 -0.717325
F2    F     F_    0.134033 0.794108 0.139063 -0.711304
F3    F     F_    0.160004 0.454501 0.143376 -0.677711
F4    F     F_    0.911596 0.798363 0.553855 -0.694173
F5    F     F_    0.417462 0.424392 0.701592 -0.716002
F6    F     F_    0.842241 0.520373 0.842918 -0.698365
F7    F     F_    0.711148 0.406057 0.468957 -0.720222
F8    F     F_    0.442067 0.552012 0.193450 -0.659030
F9    F     F_    0.813028 0.117954 0.018197 -0.665401
F10   F     F_    0.888789 0.964332 0.904745 -0.655580
H1    H     H_    0.871094 0.223912 0.869041 0.130924
H2    H     H_    0.045009 0.917927 0.269947 0.173078
H3    H     H_    0.991945 0.751848 0.400932 0.177904
H4    H     H_    0.854760 0.948330 0.689354 0.196955
H5    H     H_    0.247818 0.533794 0.638623 0.187979
H6    H     H_    0.301863 0.560162 0.515089 0.164671
H7    H     H_    0.582966 0.545937 0.298708 0.169323
H8    H     H_    0.751154 0.443578 0.350128 0.197104
H9    H     H_    0.571653 0.404624 0.597208 0.203025
H10   H     H_    0.695886 0.432066 0.819236 0.178837
H11   H     H_    0.548212 0.440541 0.834407 0.154871
H12   H     H_    0.090290 0.318286 0.083890 0.181107
H13   H     H_    0.396230 0.468226 0.922097 0.189426
H14   H     H_    0.992435 0.634569 0.285780 0.213554
H15   H     H_    0.844082 0.237695 0.262250 0.202786
H16   H     H_    0.958657 0.823754 0.880707 0.199932
H17   H     H_    0.958570 0.936060 0.126782 0.190831
H18   H     H_    0.706187 0.391274 0.020472 0.164290
H19   H     H_    0.197101 0.897970 0.011388 0.138983
H20   H     H_    0.130837 0.874525 0.956718 0.086224
H21   H     H_    0.240097 0.728331 0.933836 0.251784
H22   H     H_    0.186367 0.715377 0.869150 0.190667
H23   H     H_    0.944672 0.188038 0.934217 0.171601
H24   H     H_    0.283376 0.829783 0.823897 0.273565
H25   H     H_    0.343612 0.734066 0.797849 0.275667
H26   H     H_    0.339106 0.840091 0.886871 0.268203
H27   H     H_    0.848971 0.329059 0.543500 0.167187
H28   H     H_    0.808621 0.236635 0.570114 0.093276
H29   H     H_    0.851460 0.248828 0.404692 0.233894
H30   H     H_    0.838431 0.140685 0.407944 0.219673
H31   H     H_    0.689882 0.181002 0.517221 0.241879
H32   H     H_    0.701099 0.203981 0.431934 0.278010
H33   H     H_    0.700533 0.295959 0.528998 0.290297
H34   H     H_    0.302685 0.565916 0.843281 0.216066
H35   H     H_    0.469079 0.673408 0.340397 0.165453
H36   H     H_    0.487910 0.690651 0.428395 0.048520
H37   H     H_    0.308159 0.697736 0.430600 0.228726
H38   H     H_    0.326880 0.718583 0.520641 0.194989
H39   H     H_    0.419327 0.849583 0.505676 0.273535
H40   H     H_    0.310852 0.862713 0.519336 0.282969
H41   H     H_    0.399780 0.829072 0.415676 0.260640
H42   H     H_    0.552247 0.676619 0.184882 0.129208
H43   H     H_    0.642931 0.665532 0.087196 0.035970
H44   H     H_    0.651594 0.647107 0.232572 0.200501
H45   H     H_    0.994656 0.370464 0.720093 0.179671
H46   H     H_    0.742206 0.631290 0.133216 0.196807
H47   H     H_    0.720415 0.791265 0.163280 0.265645
H48   H     H_    0.739402 0.785686 0.244126 0.277604
H49   H     H_    0.630498 0.806843 0.263838 0.275358
H50   H     H_    0.284672 0.702033 0.218821 0.042403
H51   H     H_    0.335302 0.683553 0.274161 0.128596
H52   H     H_    0.139207 0.677447 0.319024 0.209846
H53   H     H_    0.190047 0.662397 0.375132 0.218511
H54   H     H_    0.248670 0.820031 0.405052 0.273539
H55   H     H_    0.131640 0.819142 0.448134 0.294019
H56   H     H_    0.854343 0.109243 0.763848 0.137263
H57   H     H_    0.192365 0.834620 0.352576 0.277430
H58   H     H_    0.002319 0.178682 0.294542 0.162292
H59   H     H_    0.011213 0.202904 0.212136 0.110180
H60   H     H_    0.073922 0.023498 0.185779 0.232848
H61   H     H_    0.089371 0.054047 0.103619 0.197633
H62   H     H_    0.177658 0.185367 0.156387 0.274922
H63   H     H_    0.222538 0.079018 0.128236 0.262938
H64   H     H_    0.162961 0.153749 0.238210 0.274938
H65   H     H_    0.827361 0.689957 0.427307 0.178685
H66   H     H_    0.732634 0.634855 0.417899 0.117137
H67   H     H_    0.926841 0.279755 0.634609 0.165082
H68   H     H_    0.852074 0.741300 0.315245 0.226100
H69   H     H_    0.750190 0.693401 0.313935 0.198759
H70   H     H_    0.673313 0.793822 0.467822 0.262897
H71   H     H_    0.732798 0.857211 0.406993 0.268741
H72   H     H_    0.775916 0.842944 0.469267 0.268056
H73   H     H_    0.816972 0.788320 0.009878 0.079757
H74   H     H_    0.778521 0.678435 0.996391 0.068156
H75   H     H_    0.809423 0.765326 0.877875 0.220175
H76   H     H_    0.768188 0.654099 0.863754 0.249930
H77   H     H_    0.637468 0.718444 0.998187 0.252599
H78   H     H_    0.700458 0.422832 0.150979 0.168485
H79   H     H_    0.650630 0.771063 0.931844 0.290337
H80   H     H_    0.679740 0.831431 0.020192 0.278717
H81   H     H_    0.384645 0.671599 0.041347 0.091100
H82   H     H_    0.275236 0.721261 0.111500 0.124299
H83   H     H_    0.404598 0.759814 0.960190 0.205313
H84   H     H_    0.298917 0.813191 0.035780 0.244968
H85   H     H_    0.348123 0.874154 0.152550 0.276585
H86   H     H_    0.415138 0.910682 0.070751 0.281056
H87   H     H_    0.454793 0.821851 0.076251 0.264650
H88   H     H_    0.002797 0.076368 0.348405 0.165670
N1    N     N_R   0.036080 0.671900 0.995420 -0.131418
N2    N     N_R   0.867430 0.509300 0.948100 -0.122208
N3    N     N_R   0.003360 0.617250 0.167070 -0.087583
N4    N     N_R   0.825450 0.461270 0.995400 -0.096797
N5    N     N_R   0.045340 0.665280 0.119770 -0.119988
N6    N     N_R   0.883740 0.497640 0.167070 -0.086141
N7    N     N_R   0.987050 0.628910 0.948110 -0.130769
N8    N     N_R   0.174550 0.538730 0.004600 -0.119284
N9    N     N_R   0.954660 0.334720 0.880230 -0.055895
N10   N     N_R   0.116260 0.502360 0.832930 -0.120732
N11   N     N_R   0.012950 0.371090 0.051890 -0.047053
N12   N     N_R   0.963920 0.328100 0.004580 -0.052381
N13   N     N_R   0.165290 0.545350 0.880240 -0.091646
N14   N     N_R   0.132570 0.490700 0.051900 -0.153665
N15   N     N_R   0.996640 0.382750 0.832930 -0.056093
N16   N     N_R   0.834710 0.454650 0.119760 -0.073391
Ni1   Ni    Ni4+2 0.104370 0.604370 0.000010 0.236177
Ni2   Ni    Ni4+2 0.895630 0.395630 0.999990 0.210016
Ni3   Ni    Ni4+2 0.991920 0.505780 0.891500 0.277492
Ni4   Ni    Ni4+2 0.008080 0.494220 0.108500 0.256407
O1    O     O_3   0.093704 0.820209 0.044602 -0.612500
O2    O     O_3   0.941022 0.227905 0.483810 -0.651261
O3    O     O_3   0.420952 0.572626 0.379187 -0.606208
O4    O     O_3   0.605505 0.546663 0.106003 -0.617908
O5    O     O_3   0.278366 0.570994 0.209166 -0.565586
O6    O     O_3   0.926135 0.098611 0.234271 -0.677914
O7    O     O_3   0.852207 0.577930 0.315023 -0.681273
O8    O     O_3   0.901202 0.678430 0.904004 -0.596581
O9    O     O_3   0.297565 0.632764 0.985933 -0.665138

loop_
_geom_bond_atom_site_label_1
_geom_bond_atom_site_label_2
_ccdc_geom_bond_type
N7    Ni3   S    
C4    H82   S    
C6    H87   S    
C71   F1    S    
N3    Ni4   S    
C7    C10   A    
C41   C42   A    
C60   H1    S    
C35   C36   A    
C16   C51   S    
C72   C76   A    
C93   H23   S    
C2    C12   A    
C95   H55   S    
C94   H53   S    
C97   C98   S    
N12   Ni2   S    
C66   C70   A    
C77   C78   A    
N5    Ni1   S    
C44   H18   S    
C4    H81   S    
N10   Ni3   S    
N2    N4    A    
C59   C64   A    
C102  H73   S    
C80   H22   S    
N2    Ni3   S    
C23   H88   S    
C62   O4    S    
C34   C40   A    
N8    Ni1   S    
C77   N7    A    
C14   C21   A    
C28   C29   A    
C19   C21   A    
C85   H32   S    
C75   H15   S    
C48   H9    S    
C6    H86   S    
C80   C81   S    
C101  H72   S    
C89   H42   S    
C66   C69   A    
C8    H78   S    
C46   C52   A    
C70   H17   S    
C80   H21   S    
C85   H31   S    
C81   H26   S    
C34   C35   A    
C52   H8    S    
C90   H46   S    
N1    N7    A    
C44   N4    A    
C8    N16   A    
C102  C103  S    
C11   C15   S    
C27   C44   A    
N4    Ni2   S    
C83   C84   S    
C96   H58   S    
C102  O8    S    
C23   C24   A    
C31   C33   A    
C91   H49   S    
C67   C73   A    
C32   C38   A    
C100  H69   S    
C99   O7    S    
C101  H70   S    
C39   C45   A    
C83   O2    S    
C92   H51   S    
C24   C25   A    
C92   O5    S    
C8    C16   A    
C87   H38   S    
C27   C53   S    
C76   O6    S    
C1    C78   A    
C88   H39   S    
C94   C95   S    
C86   O3    S    
C14   H56   S    
C42   O3    S    
C1    N1    A    
N14   Ni4   S    
C94   H52   S    
C83   H27   S    
C25   C26   A    
C17   C18   A    
C82   N11   A    
N11   Ni4   S    
C9    N15   A    
C81   H25   S    
C66   C78   S    
C59   C61   A    
C97   H60   S    
C63   C64   A    
C93   N12   A    
C51   C52   A    
C96   O6    S    
C85   H33   S    
C99   H65   S    
N13   Ni1   S    
C86   H36   S    
C39   C40   A    
C83   H28   S    
C86   C87   S    
C18   C19   A    
C89   H43   S    
C5    H84   S    
C84   H30   S    
C2    H34   S    
C45   C46   A    
C21   C29   A    
C13   C82   A    
C87   H37   S    
C41   H6    S    
N9    Ni2   S    
C20   F6    S    
C13   C93   A    
C1    O1    S    
C67   C69   A    
C4    O9    S    
C32   N3    A    
C81   H24   S    
C75   C76   A    
C82   H12   S    
C99   H66   S    
C43   C45   A    
C53   C62   A    
C49   O9    S    
C26   C33   A    
C47   C48   A    
C14   C15   A    
C84   H29   S    
C30   C31   A    
C96   C97   S    
C68   N6    A    
C92   C94   S    
C50   C51   A    
C19   C25   A    
C7    F3    S    
C38   C56   A    
N8    N14   A    
C84   C85   S    
C12   C35   S    
C100  H68   S    
C9    C11   A    
C91   H47   S    
C101  H71   S    
C5    H83   S    
C103  H76   S    
C57   O5    S    
C92   H50   S    
C12   C71   A    
N3    N5    A    
C58   H13   S    
C71   N10   A    
C55   C57   A    
C50   H7    S    
C3    H77   S    
C24   C30   A    
C42   C43   A    
C11   C60   A    
C3    H80   S    
C73   C74   A    
C36   H5    S    
C32   H14   S    
C79   O1    S    
C6    H85   S    
C54   C58   A    
C3    C103  S    
C40   C48   A    
C46   C47   A    
C36   C37   A    
C33   H3    S    
C97   H61   S    
C55   F8    S    
C98   H63   S    
C18   C22   A    
C26   C28   A    
C103  H75   S    
N15   Ni3   S    
C20   N2    A    
C89   O4    S    
C72   C73   A    
C86   H35   S    
C63   H10   S    
C30   H2    S    
C68   O7    S    
C43   C50   A    
C15   C17   A    
C79   H20   S    
C20   C27   A    
C17   H67   S    
N16   Ni2   S    
C47   F7    S    
C22   O2    S    
C77   O8    S    
C102  H74   S    
C65   C75   A    
C99   C100  S    
C16   C68   A    
C34   F5    S    
C88   H40   S    
N1    Ni1   S    
C31   C38   S    
C67   F10   S    
C37   C39   A    
C64   H11   S    
C3    H79   S    
C74   F9    S    
C98   H62   S    
C53   C63   A    
C98   H64   S    
C90   C91   S    
C5    C6    S    
C29   H4    S    
C9    H45   S    
C90   H44   S    
N9    N15   A    
C79   H19   S    
C55   C61   A    
C100  C101  S    
C2    N13   A    
N6    Ni4   S    
C95   H54   S    
C37   C41   A    
C61   C62   A    
C10   C54   S    
C95   H57   S    
C58   C59   A    
C56   F2    S    
C65   C74   A    
N6    N16   A    
C79   C80   S    
C4    C5    S    
N10   N13   A    
C56   N5    A    
N11   N12   A    
C87   C88   S    
C69   H16   S    
C96   H59   S    
C49   N8    A    
C22   C23   A    
C91   H48   S    
C70   C72   A    
C28   F4    S    
C89   C90   S    
C10   C49   A    
C60   N9    A    
C7    N14   A    
C88   H41   S    
C54   C57   A    
