data_mof_unit_pretest_718.cif
_audit_creation_date              2012-12-11T14:06:48-0500
_audit_creation_method            fapswitch 2.2
_symmetry_space_group_name_H-M    P1
_symmetry_Int_Tables_number       1
_space_group_crystal_system       triclinic
_cell_length_a                    6.920974
_cell_length_b                    17.284698
_cell_length_c                    24.121516
_cell_angle_alpha                 104.427248
_cell_angle_beta                  90.407819
_cell_angle_gamma                 89.924226
_cell_volume                      2794.51469005

loop_
_atom_site_label
_atom_site_type_symbol
_atom_type_description
_atom_site_fract_x
_atom_site_fract_y
_atom_site_fract_z
_atom_type_partial_charge
O1    O     O_R   0.494290 0.391990 0.999150 -0.534522
O2    O     O_R   0.827170 0.534410 0.082350 -0.552608
O3    O     O_R   0.994360 0.608010 0.000850 -0.538776
C1    C     C_R   0.658575 0.547312 0.106370 0.687310
O4    O     O_R   0.824210 0.388010 0.004470 -0.548886
O5    O     O_R   0.991370 0.460560 0.922410 -0.549850
C2    C     C_R   0.654589 0.354863 0.001497 0.768981
O6    O     O_R   0.497270 0.539440 0.077590 -0.531797
O7    O     O_3   0.659770 0.523970 0.973170 -0.371339
V1    V     V_3+5 0.935840 0.495550 0.004980 1.403037
O8    O     O_R   0.320910 0.465590 0.917650 -0.529736
C3    C     C_R   0.150996 0.453057 0.893796 0.695249
O9    O     O_R   0.323870 0.611990 0.995530 -0.544420
C4    C     C_R   0.154356 0.645114 0.998497 0.766911
V2    V     V_3+5 0.435470 0.504450 0.995020 1.440193
O10   O     O_3   0.161670 0.476030 0.026830 -0.371698
C5    C     C_2   0.142775 0.730240 0.998061 -0.338468
H1    H     H_    0.277272 0.761050 0.994688 0.151839
C6    C     C_2   0.972739 0.769771 0.002001 -0.343478
H2    H     H_    0.838241 0.738957 0.005367 0.150662
C7    C     C_R   0.083899 0.255767 0.625843 0.569789
N1    N     N_R   0.115049 0.335729 0.647799 -0.558846
C8    C     C_R   0.128249 0.387036 0.612762 0.580971
C9    C     C_R   0.110507 0.358418 0.552185 -0.044819
C10   C     C_R   0.083702 0.275124 0.529388 -0.048171
C11   C     C_R   0.070955 0.223715 0.566455 -0.022108
C12   C     C_R   0.118378 0.408889 0.513417 0.118713
C13   C     C_R   0.102602 0.375159 0.454155 -0.148369
C14   C     C_R   0.077853 0.292808 0.431768 -0.063328
C15   C     C_R   0.068481 0.242642 0.469355 -0.017527
C16   C     C_R   0.043436 0.159721 0.446887 -0.019650
C17   C     C_R   0.032518 0.109622 0.484476 -0.153924
C18   C     C_R   0.045230 0.141245 0.543478 -0.136004
C19   C     C_R   0.060126 0.259449 0.372270 0.591311
N2    N     N_R   0.036728 0.178593 0.350974 -0.555845
C20   C     C_R   0.029592 0.128730 0.387172 0.569889
O11   O     O_2   0.065470 0.207296 0.661552 -0.515713
O12   O     O_2   0.159792 0.465090 0.636908 -0.509582
H3    H     H_    0.109349 0.413907 0.425146 0.175185
O13   O     O_2   0.063733 0.307728 0.336112 -0.507558
O14   O     O_2   0.010607 0.049215 0.365508 -0.517738
H4    H     H_    0.013207 0.045739 0.468470 0.171160
H5    H     H_    0.035500 0.100623 0.571051 0.179089
C21   C     C_R   0.848597 0.103985 0.267113 -0.076303
H6    H     H_    0.734529 0.097405 0.296144 0.133382
C22   C     C_R   0.826496 0.070963 0.207813 0.099591
C23   C     C_R   0.976156 0.081091 0.169897 -0.067207
C24   C     C_R   0.143834 0.123223 0.193547 -0.238336
H7    H     H_    0.259820 0.132894 0.166156 0.139016
C25   C     C_R   0.164218 0.154574 0.252562 -0.089068
H8    H     H_    0.295548 0.186096 0.269327 0.143495
C26   C     C_R   0.016549 0.145622 0.289841 0.331271
C27   C     C_R   0.978854 0.414784 0.737992 -0.119256
H9    H     H_    0.859527 0.428930 0.712901 0.169632
C28   C     C_R   0.983232 0.445978 0.797761 -0.072094
C29   C     C_R   0.140215 0.426275 0.830062 -0.163321
C30   C     C_R   0.291714 0.379210 0.800782 -0.136766
H10   H     H_    0.413643 0.364494 0.824720 0.140278
C31   C     C_R   0.289123 0.350286 0.740964 0.190067
C32   C     C_R   0.128786 0.366941 0.709255 0.343954
C33   C     C_R   0.485377 0.871045 0.613250 0.571600
N3    N     N_R   0.502070 0.821276 0.649274 -0.562368
C34   C     C_R   0.535422 0.741142 0.628012 0.589951
C35   C     C_R   0.553131 0.708239 0.568496 -0.062976
C36   C     C_R   0.537261 0.758403 0.530993 -0.016951
C37   C     C_R   0.503475 0.840769 0.553554 -0.020575
C38   C     C_R   0.587028 0.626533 0.546048 -0.150886
C39   C     C_R   0.602544 0.593188 0.486768 0.119283
C40   C     C_R   0.586725 0.643588 0.448027 -0.044024
C41   C     C_R   0.555914 0.726538 0.470988 -0.047906
C42   C     C_R   0.543775 0.778279 0.434134 -0.018750
C43   C     C_R   0.511037 0.860301 0.457246 -0.133070
C44   C     C_R   0.490186 0.891052 0.516102 -0.152787
C45   C     C_R   0.600283 0.615130 0.387342 0.585912
N4    N     N_R   0.592442 0.666951 0.352398 -0.554724
C46   C     C_R   0.565733 0.747197 0.374863 0.573889
O15   O     O_2   0.453518 0.949744 0.635092 -0.516248
O16   O     O_2   0.550561 0.693276 0.664291 -0.503484
H11   H     H_    0.600982 0.587956 0.575043 0.174595
O17   O     O_2   0.618240 0.536400 0.363023 -0.512808
O18   O     O_2   0.562254 0.797226 0.339925 -0.519481
H12   H     H_    0.500769 0.901202 0.429856 0.178215
H13   H     H_    0.464631 0.954521 0.532146 0.169586
C47   C     C_R   0.465301 0.648670 0.253619 -0.034054
H14   H     H_    0.335927 0.681098 0.270567 0.139565
C48   C     C_R   0.483682 0.619358 0.194411 -0.142191
H15   H     H_    0.368129 0.631511 0.167258 0.136192
C49   C     C_R   0.647659 0.575429 0.170315 -0.147481
C50   C     C_R   0.794695 0.560455 0.208072 -0.068439
C51   C     C_R   0.776451 0.593054 0.267634 -0.066257
H16   H     H_    0.888485 0.582896 0.296623 0.170060
C52   C     C_R   0.611907 0.636459 0.290866 0.319694
C53   C     C_R   0.655957 0.860563 0.744813 -0.086087
H17   H     H_    0.794292 0.841314 0.725493 0.117366
C54   C     C_R   0.645156 0.892127 0.804088 -0.189394
H18   H     H_    0.776681 0.896098 0.829226 0.130758
C55   C     C_R   0.467065 0.917484 0.830530 -0.058761
C56   C     C_R   0.300226 0.910675 0.795793 -0.194294
H19   H     H_    0.160803 0.929453 0.814501 0.130417
C57   C     C_R   0.311668 0.879485 0.736323 -0.077970
H20   H     H_    0.181864 0.874697 0.710361 0.119318
C58   C     C_R   0.489564 0.853951 0.710461 0.381039
C59   C     C_2   0.642939 0.269693 0.001940 -0.340576
H21   H     H_    0.777590 0.238745 0.005320 0.150573
C60   C     C_2   0.472557 0.230302 0.998015 -0.339811
H22   H     H_    0.337905 0.261255 0.994646 0.150270
O19   O     O_R   0.618210 0.960470 0.922400 -0.540404
O20   O     O_R   0.291310 0.111960 0.995450 -0.546278
O21   O     O_R   0.124210 0.039530 0.077580 -0.541477
C61   C     C_R   0.460920 0.145124 0.998446 0.774178
O22   O     O_R   0.288310 0.965490 0.917650 -0.542716
O23   O     O_R   0.121180 0.892010 0.999220 -0.534576
C62   C     C_R   0.456805 0.949550 0.893904 0.708202
O24   O     O_R   0.621230 0.107990 0.000760 -0.534431
O25   O     O_3   0.455770 0.976060 0.026840 -0.371339
V3    V     V_3+5 0.179680 0.004440 0.995020 1.410643
O26   O     O_R   0.791670 0.888040 0.004570 -0.546657
C63   C     C_R   0.961174 0.854906 0.001578 0.775379
O27   O     O_R   0.794680 0.034510 0.082370 -0.540483
C64   C     C_R   0.963859 0.049425 0.106255 0.712492
V4    V     V_3+5 0.680070 0.995560 0.005010 1.406492
O28   O     O_3   0.953840 0.023940 0.973160 -0.370573
C65   C     C_2   0.828484 0.502464 0.824467 0.414065
H23   H     H_    0.850324 0.543670 0.865921 0.060624
O29   O     O_2   0.674833 0.504878 0.799745 -0.523452
C66   C     C_3   0.460164 0.302779 0.712791 -0.674331
H24   H     H_    0.467117 0.245207 0.725278 0.221534
H25   H     H_    0.454366 0.290211 0.665449 0.208538
H26   H     H_    0.595008 0.336694 0.727155 0.207910
C67   C     C_3   0.637663 0.504224 0.467453 -0.665255
H27   H     H_    0.774983 0.492313 0.443347 0.236549
H28   H     H_    0.650724 0.476204 0.504065 0.182335
H29   H     H_    0.514746 0.474599 0.440644 0.242412
C68   C     C_2   0.961406 0.506975 0.187546 0.403009
H30   H     H_    0.955652 0.463101 0.146759 0.062774
O30   O     O_2   0.106734 0.509707 0.216993 -0.523061
C69   C     C_3   0.140602 0.498547 0.532803 -0.665821
H31   H     H_    0.279995 0.513850 0.555830 0.241587
H32   H     H_    0.141060 0.527072 0.496304 0.182836
H33   H     H_    0.018072 0.524742 0.560719 0.237311
C70   C     C_3   0.645078 0.024107 0.187080 -0.711578
H34   H     H_    0.683009 0.963232 0.161608 0.207270
H35   H     H_    0.553142 0.017387 0.223163 0.206817
H36   H     H_    0.557545 0.055385 0.160717 0.209676

loop_
_geom_bond_atom_site_label_1
_geom_bond_atom_site_label_2
_ccdc_geom_bond_type
O23   C63   A    
C28   C29   A    
C53   H17   S    
O25   V4    S    
C27   C28   A    
C67   H28   S    
C54   H18   S    
C9    C12   A    
C1    O6    A    
C55   C56   A    
C51   H16   S    
C65   H23   S    
C27   H9    S    
C31   C66   S    
C69   H32   S    
C66   H24   S    
V3    O28   S    
C19   O13   S    
C13   C14   A    
C60   C61   S    
C47   C48   A    
C70   H35   S    
O5    C3    A    
C15   C16   A    
C48   C49   A    
C65   O29   D    
O25   V3    S    
C29   C30   A    
C19   N2    A    
O26   V4    S    
O19   C62   A    
O21   V3    S    
O24   V4    S    
O8    V2    S    
C33   C37   A    
N2    C20   A    
C6    C63   S    
C33   O15   S    
C39   C40   A    
C25   C26   A    
C8    C9    A    
C41   C42   A    
O1    V2    S    
O7    V1    S    
C61   O24   A    
C21   C26   A    
C24   C25   A    
C36   C41   A    
C31   C32   A    
C53   C54   A    
C45   O17   S    
O9    C4    A    
C4    C5    S    
C20   O14   S    
C33   N3    A    
C70   H34   S    
N1    C8    A    
C27   C32   A    
C21   C22   A    
C25   H8    S    
C22   C70   S    
O27   V4    S    
C69   H33   S    
C28   C65   S    
C45   N4    A    
C38   C39   A    
C18   H5    S    
C35   C38   A    
C38   H11   S    
C9    C10   A    
O22   C62   A    
C70   H36   S    
O4    C2    A    
C48   H15   S    
C68   O30   D    
C13   H3    S    
C10   C11   A    
C37   C44   A    
C14   C19   A    
C46   O18   S    
O2    C1    A    
N4    C46   A    
C14   C15   A    
C11   C18   A    
C51   C52   A    
C23   C24   A    
O27   C64   A    
N3    C34   A    
C57   C58   A    
C5    H1    S    
C40   C45   A    
C59   C60   D    
C12   C69   S    
C47   H14   S    
C39   C67   S    
V4    O28   S    
C3    C29   S    
O3    C4    A    
N4    C52   S    
C23   C64   S    
C36   C37   A    
O6    V2    S    
C56   C57   A    
O9    V2    S    
C67   H29   S    
O19   V4    S    
C55   C62   S    
O2    V1    S    
O23   V3    S    
C21   H6    S    
C60   H22   S    
C10   C15   A    
C22   C23   A    
C24   H7    S    
C66   H25   S    
C50   C68   S    
O1    C2    A    
C16   C17   A    
C43   C44   A    
C53   C58   A    
O5    V1    S    
O8    C3    A    
C54   C55   A    
C68   H30   S    
C1    C49   S    
C8    O12   S    
C69   H31   S    
C66   H26   S    
O22   V3    S    
C17   C18   A    
O20   V3    S    
C6    H2    S    
C67   H27   S    
O7    V2    S    
O4    V1    S    
O3    V1    S    
V1    O10   S    
O26   C63   A    
C35   C36   A    
N1    C32   S    
N2    C26   S    
C30   H10   S    
C42   C46   A    
C7    C11   A    
C57   H20   S    
C5    C6    D    
O20   C61   A    
C40   C41   A    
C30   C31   A    
C34   C35   A    
C42   C43   A    
C7    O11   S    
C49   C50   A    
C56   H19   S    
C59   H21   S    
C17   H4    S    
C16   C20   A    
C2    C59   S    
C47   C52   A    
N3    C58   S    
C50   C51   A    
C7    N1    A    
C44   H13   S    
C43   H12   S    
V2    O10   S    
O21   C64   A    
C12   C13   A    
C34   O16   S    
