data_mof_unit_pretest_167.cif
_audit_creation_date              2012-12-11T17:39:28-0500
_audit_creation_method            fapswitch 2.2
_symmetry_space_group_name_H-M    P1
_symmetry_Int_Tables_number       1
_space_group_crystal_system       triclinic
_cell_length_a                    15.116212
_cell_length_b                    15.055394
_cell_length_c                    14.993489
_cell_angle_alpha                 108.909467
_cell_angle_beta                  109.999664
_cell_angle_gamma                 110.11285
_cell_volume                      2606.56480481

loop_
_atom_site_label
_atom_site_type_symbol
_atom_type_description
_atom_site_fract_x
_atom_site_fract_y
_atom_site_fract_z
_atom_type_partial_charge
C1    C     C_R   0.909982 0.915162 0.714571 -0.115690
C2    C     C_R   0.003093 0.299746 0.433651 0.060134
C3    C     C_R   0.260920 0.320403 0.820734 0.175058
C4    C     C_R   0.707311 0.029347 0.532598 0.031185
C5    C     C_R   0.702008 0.695663 0.286901 -0.026361
C6    C     C_R   0.303352 0.093973 0.503989 -0.139162
C7    C     C_R   0.092343 0.780846 0.525687 -0.115435
C8    C     C_R   0.909408 0.936747 0.187134 -0.131493
C9    C     C_R   0.092076 0.024088 0.280793 -0.122599
C10   C     C_R   0.909642 0.684768 0.441441 -0.080714
C11   C     C_R   0.704409 0.784657 0.193624 -0.094957
C12   C     C_R   0.092330 0.296320 0.492846 -0.159037
C13   C     C_R   0.303617 0.008703 0.600259 -0.145136
C14   C     C_R   0.646580 0.686138 0.186601 -0.078453
C15   C     C_R   0.366324 0.067623 0.569572 0.063467
C16   C     C_R   0.002742 0.677378 0.460463 0.008699
C17   C     C_R   0.000495 0.947713 0.177088 0.055792
C18   C     C_R   0.463953 0.676884 0.376369 -0.085842
C19   C     C_R   0.492334 0.786106 0.414361 -0.128080
C20   C     C_R   0.528943 0.854594 0.524496 0.118465
C21   C     C_R   0.535704 0.811917 0.595662 -0.204102
C22   C     C_R   0.508409 0.702929 0.557553 -0.119591
C23   C     C_R   0.240486 0.219856 0.811314 -0.092330
C24   C     C_R   0.472432 0.635420 0.447968 -0.022836
C25   C     C_R   0.479981 0.989833 0.587235 -0.231699
C26   C     C_R   0.471269 0.079766 0.588947 0.063349
C27   C     C_R   0.549487 0.161609 0.585352 0.029515
C28   C     C_R   0.631573 0.146129 0.573927 -0.238769
C29   C     C_R   0.630188 0.048757 0.558126 0.070083
C30   C     C_R   0.552266 0.968661 0.563017 0.013923
C31   C     C_R   0.553897 0.285421 0.505980 -0.166244
C32   C     C_R   0.537251 0.368688 0.497221 -0.099607
C33   C     C_R   0.507716 0.423918 0.565179 -0.089903
C34   C     C_R   0.738995 0.053248 0.462620 -0.148210
C35   C     C_R   0.496997 0.397543 0.643394 -0.101565
C36   C     C_R   0.517994 0.317529 0.655799 -0.148822
C37   C     C_R   0.543037 0.257863 0.584519 0.105604
C38   C     C_R   0.805911 0.112477 0.081851 -0.117644
C39   C     C_R   0.882833 0.212183 0.179171 -0.137513
C40   C     C_R   0.849712 0.281630 0.227409 0.118996
C41   C     C_R   0.738317 0.249974 0.175054 -0.171572
C42   C     C_R   0.661706 0.150279 0.077362 -0.104679
C43   C     C_R   0.695464 0.081539 0.031027 -0.089519
C44   C     C_R   0.931853 0.482511 0.345198 -0.252481
C45   C     C_R   0.241061 0.311303 0.719961 -0.125971
C46   C     C_R   0.010123 0.581125 0.444049 0.077487
C47   C     C_R   0.093443 0.586321 0.529482 0.052746
C48   C     C_R   0.095188 0.492897 0.514986 -0.233839
C49   C     C_R   0.011508 0.392829 0.421838 0.049340
C50   C     C_R   0.931493 0.386254 0.332655 0.027587
C51   C     C_R   0.282313 0.738615 0.681585 -0.166334
C52   C     C_R   0.353993 0.826030 0.788915 -0.191678
C53   C     C_R   0.314046 0.854953 0.858306 -0.146023
C54   C     C_R   0.201983 0.796778 0.820862 0.570739
C55   C     C_R   0.129513 0.710441 0.711810 -0.304926
C56   C     C_R   0.746341 0.966112 0.559495 -0.081609
C57   C     C_R   0.169429 0.681541 0.642004 0.084067
C58   C     C_2   0.362325 0.517293 0.934083 -0.096196
C59   C     C_2   0.308731 0.419717 0.923307 -0.148508
C60   C     C_2   0.463721 0.605312 0.036736 -0.161276
C61   C     C_2   0.544522 0.590745 0.091980 -0.067309
C62   C     C_R   0.404769 0.189868 0.117933 -0.140060
C63   C     C_R   0.307947 0.092363 0.072413 -0.157342
C64   C     C_R   0.207600 0.089508 0.040152 0.103444
C65   C     C_R   0.206131 0.186243 0.057107 -0.166593
C66   C     C_R   0.303576 0.284122 0.105069 -0.139818
C67   C     C_R   0.910431 0.209825 0.406087 -0.120633
C68   C     C_R   0.402609 0.285707 0.134527 -0.060416
C69   C     C_R   0.104747 0.965852 0.084412 -0.197063
C70   C     C_R   0.004420 0.908369 0.075771 0.028202
C71   C     C_R   0.909042 0.840546 0.970938 0.063796
C72   C     C_R   0.913855 0.850326 0.883366 -0.262152
C73   C     C_R   0.009013 0.931617 0.900799 0.058057
C74   C     C_R   0.106940 0.989779 0.003560 0.090086
C75   C     C_R   0.798906 0.681250 0.981060 -0.153695
C76   C     C_R   0.698431 0.601546 0.955362 -0.176932
C77   C     C_R   0.602785 0.601022 0.899527 -0.136035
C78   C     C_R   0.091882 0.002362 0.801523 -0.140107
C79   C     C_R   0.606132 0.679846 0.868883 0.550356
C80   C     C_R   0.707226 0.759085 0.893170 -0.371658
C81   C     C_R   0.803759 0.759798 0.949169 0.104775
C82   C     C_R   0.003613 0.953601 0.811788 0.045788
H1    H     H_    0.826303 0.858872 0.686850 0.118321
H2    H     H_    0.328860 0.146125 0.471787 0.114555
H3    H     H_    0.177113 0.805048 0.553994 0.113592
H4    H     H_    0.824919 0.889952 0.123246 0.116244
H5    H     H_    0.176878 0.054435 0.305633 0.096562
H6    H     H_    0.826541 0.617327 0.394630 0.119546
H7    H     H_    0.676062 0.809776 0.134997 0.105465
H8    H     H_    0.331146 0.986849 0.662215 0.102307
H9    H     H_    0.450840 0.550916 0.418328 0.089232
H10   H     H_    0.435309 0.624345 0.291339 0.091098
H11   H     H_    0.484755 0.817096 0.357919 0.111336
H12   H     H_    0.176291 0.347094 0.516283 0.103472
H13   H     H_    0.562257 0.863107 0.680420 0.108284
H14   H     H_    0.514504 0.670722 0.612851 0.119550
H15   H     H_    0.418603 0.925119 0.586551 0.128330
H16   H     H_    0.693669 0.207521 0.571982 0.131130
H17   H     H_    0.571753 0.240236 0.449009 0.110216
H18   H     H_    0.544547 0.388496 0.435862 0.120218
H19   H     H_    0.491710 0.486142 0.556349 0.104693
H20   H     H_    0.469543 0.437222 0.692341 0.129261
H21   H     H_    0.509091 0.298259 0.716961 0.141550
H22   H     H_    0.636171 0.004347 0.955691 0.090541
H23   H     H_    0.249649 0.199988 0.875611 0.116972
H24   H     H_    0.831983 0.059199 0.045820 0.112605
H25   H     H_    0.968220 0.235073 0.217028 0.114142
H26   H     H_    0.710423 0.301436 0.210607 0.105271
H27   H     H_    0.576023 0.126039 0.037759 0.105842
H28   H     H_    0.870834 0.480840 0.279136 0.127476
H29   H     H_    0.155581 0.497425 0.584225 0.141923
H30   H     H_    0.314348 0.716033 0.628944 0.132493
H31   H     H_    0.440716 0.870736 0.818594 0.124623
H32   H     H_    0.370575 0.921930 0.941817 0.115376
H33   H     H_    0.719838 0.098953 0.424218 0.101918
H34   H     H_    0.042607 0.664679 0.681679 0.129446
H35   H     H_    0.344915 0.528842 0.863621 0.147440
H36   H     H_    0.325873 0.412589 0.996247 0.123896
H37   H     H_    0.476736 0.687257 0.063199 0.138410
H38   H     H_    0.477932 0.361363 0.171748 0.084948
H39   H     H_    0.481798 0.191633 0.142487 0.104627
H40   H     H_    0.311451 0.019745 0.064101 0.162289
H41   H     H_    0.130125 0.186331 0.036208 0.116891
H42   H     H_    0.302463 0.358993 0.120879 0.100589
H43   H     H_    0.248417 0.374037 0.698195 0.098405
H44   H     H_    0.181095 0.010094 0.160954 0.119464
H45   H     H_    0.840900 0.797678 0.802870 0.141604
H46   H     H_    0.872483 0.680505 0.023755 0.128489
H47   H     H_    0.694730 0.539676 0.978083 0.161563
H48   H     H_    0.525059 0.538038 0.878183 0.173116
H49   H     H_    0.711022 0.820363 0.869274 0.120162
H50   H     H_    0.737639 0.934811 0.613058 0.110020
H51   H     H_    0.826116 0.182713 0.352099 0.103576
H52   H     H_    0.174297 0.020621 0.848655 0.130576
N1    N     N_R   0.941940 0.944580 0.650780 -0.035942
N2    N     N_R   0.206190 0.054080 0.497260 -0.040921
N3    N     N_R   0.056380 0.847410 0.553580 -0.048707
N4    N     N_R   0.944890 0.999100 0.292900 -0.043592
N5    N     N_R   0.058060 0.055420 0.349220 -0.042358
N6    N     N_R   0.943200 0.791100 0.497260 -0.025126
N7    N     N_R   0.795540 0.849750 0.292910 -0.054289
N8    N     N_R   0.205730 0.996760 0.553580 -0.041722
N9    N     N_R   0.056800 0.208900 0.502740 -0.040558
N10   N     N_R   0.204460 0.150250 0.707090 -0.050777
N11   N     N_R   0.794270 0.003240 0.446420 -0.046622
N12   N     N_R   0.204920 0.207570 0.650770 -0.047060
N13   N     N_R   0.793810 0.945920 0.502740 -0.034093
N14   N     N_R   0.943620 0.152590 0.446420 -0.041919
N15   N     N_R   0.055110 0.000900 0.707100 -0.053661
N16   N     N_R   0.795080 0.792430 0.349230 -0.038463
Ni1   Ni    Ni4+2 0.869690 0.869690 0.500000 0.283769
Ni2   Ni    Ni4+2 0.130310 0.130310 0.500000 0.208915
Ni3   Ni    Ni4+2 0.129250 0.998840 0.629170 0.215354
Ni4   Ni    Ni4+2 0.870750 0.001160 0.370830 0.208273
O1    O     O_3   0.166072 0.824497 0.892795 -0.794907
H53   H     H_    0.085745 0.774782 0.854403 0.317631
C83   C     C_2   0.544817 0.485924 0.058712 0.496303
H54   H     H_    0.593971 0.474062 0.120772 -0.030184
O2    O     O_2   0.499335 0.416393 0.962908 -0.609005
O3    O     O_3   0.509717 0.676620 0.814738 -0.794613
H55   H     H_    0.526204 0.738282 0.800054 0.301388
C84   C     C_2   0.650941 0.633301 0.331201 0.434919
H56   H     H_    0.572431 0.557935 0.276840 -0.027980
O4    O     O_2   0.694123 0.668050 0.429832 -0.598230

loop_
_geom_bond_atom_site_label_1
_geom_bond_atom_site_label_2
_ccdc_geom_bond_type
C66   C68   A    
C51   H30   S    
C41   H26   S    
C13   H8    S    
C9    N5    A    
C73   C74   A    
C3    C23   A    
C35   C36   A    
C35   H20   S    
C2    C12   A    
C20   C30   S    
C53   C54   A    
C53   H32   S    
C39   H25   S    
C10   H6    S    
C26   C27   A    
C83   H54   S    
N14   Ni4   S    
C36   H21   S    
C33   H19   S    
C36   C37   A    
C67   H51   S    
C42   H27   S    
C18   C19   A    
C38   C39   A    
C80   C81   A    
C34   N11   A    
N1    Ni1   S    
N7    Ni4   S    
C55   H34   S    
C58   C60   S    
C23   H23   S    
N5    Ni2   S    
C60   H37   S    
C8    N4    A    
C75   H46   S    
C41   C42   A    
N10   Ni3   S    
C78   C82   A    
C43   H22   S    
C6    N2    A    
C67   N14   A    
N11   N13   A    
C6    C15   A    
C54   C55   A    
C47   C48   A    
C45   H43   S    
C68   H38   S    
N2    N8    A    
C70   C71   A    
C51   C57   A    
C31   H17   S    
C29   C30   A    
C8    H4    S    
C4    C29   S    
C19   H11   S    
N4    Ni4   S    
C17   C70   S    
C83   O2    D    
C80   H49   S    
C21   C22   A    
C4    C56   A    
C12   H12   S    
C10   N6    A    
C32   H18   S    
N2    Ni2   S    
C44   C46   A    
N7    N16   A    
C84   O4    D    
C77   C79   A    
N9    N14   A    
N3    N6    A    
C4    C34   A    
C6    H2    S    
C72   H45   S    
C45   N12   A    
C76   C77   A    
C18   C24   A    
N10   N12   A    
C2    C67   A    
C16   C46   S    
C79   O3    S    
C7    N3    A    
C75   C81   A    
C15   C26   S    
C21   H13   S    
C25   C26   A    
C52   H31   S    
C14   C61   S    
C3    C45   A    
C58   H35   S    
C5    N16   A    
C51   C52   A    
C60   C61   D    
C38   H24   S    
N13   Ni1   S    
C75   C76   A    
C62   C63   A    
C2    C49   S    
C61   C83   S    
C47   C57   S    
C11   N7    A    
C76   H47   S    
C11   H7    S    
C31   C32   A    
N3    Ni3   S    
C69   C74   A    
C13   N8    A    
C78   H52   S    
N6    Ni1   S    
C5    C14   A    
C56   H50   S    
N12   Ni2   S    
N11   Ni4   S    
C9    C17   A    
C40   C41   A    
C69   H44   S    
C49   C50   A    
C59   H36   S    
C13   C15   A    
C22   C24   A    
C23   N10   A    
C58   C59   D    
C42   C43   A    
C28   C29   A    
C24   H9    S    
C73   C82   S    
O1    H53   S    
C63   H40   S    
C52   C53   A    
C84   H56   S    
C28   H16   S    
C25   C30   A    
C54   O1    S    
C46   C47   A    
C48   C49   A    
C7    H3    S    
C22   H14   S    
C7    C16   A    
C25   H15   S    
C72   C73   A    
C1    H1    S    
C19   C20   A    
C8    C17   A    
C12   N9    A    
C62   C68   A    
C18   H10   S    
C5    C84   S    
C56   N13   A    
C55   C57   A    
C34   H33   S    
C38   C43   A    
C10   C16   A    
C32   C33   A    
C1    C82   A    
C33   C35   A    
C9    H5    S    
C27   C37   S    
C40   C50   S    
N15   Ni3   S    
C64   C65   A    
C63   C64   A    
C11   C14   A    
C66   H42   S    
C77   H48   S    
C65   H41   S    
N8    Ni3   S    
C69   C70   A    
O3    H55   S    
N4    N5    A    
C79   C80   A    
C39   C40   A    
C31   C37   A    
C71   C72   A    
C48   H29   S    
C20   C21   A    
C44   C50   A    
C65   C66   A    
C27   C28   A    
C64   C74   S    
N16   Ni1   S    
N1    N15   A    
C1    N1    A    
C62   H39   S    
N9    Ni2   S    
C78   N15   A    
C44   H28   S    
C71   C81   S    
C3    C59   S    
