data_mof_unit_pretest_713.cif
_audit_creation_date              2012-12-11T15:08:40-0500
_audit_creation_method            fapswitch 2.2
_symmetry_space_group_name_H-M    P1
_symmetry_Int_Tables_number       1
_space_group_crystal_system       triclinic
_cell_length_a                    27.029942
_cell_length_b                    7.101328
_cell_length_c                    11.942435
_cell_angle_alpha                 89.997213
_cell_angle_beta                  103.499736
_cell_angle_gamma                 89.996789
_cell_volume                      2228.99742705

loop_
_atom_site_label
_atom_site_type_symbol
_atom_type_description
_atom_site_fract_x
_atom_site_fract_y
_atom_site_fract_z
_atom_type_partial_charge
O1    O     O_R   0.437360 0.505910 0.042120 -0.520928
O2    O     O_R   0.562640 0.005910 0.957880 -0.520833
O3    O     O_R   0.542480 0.176660 0.157100 -0.538427
O4    O     O_R   0.457520 0.676660 0.842900 -0.538365
C1    C     C_R   0.557205 0.343195 0.197903 0.769757
C2    C     C_R   0.442802 0.843221 0.802095 0.769814
O5    O     O_R   0.436520 0.176250 0.054800 -0.544467
O6    O     O_R   0.563480 0.676250 0.945200 -0.544408
O7    O     O_R   0.455920 0.005040 0.854840 -0.539783
O8    O     O_R   0.544080 0.505040 0.145160 -0.539805
C3    C     C_R   0.416419 0.344344 0.059279 0.899716
C4    C     C_R   0.583578 0.844338 0.940713 0.899857
O9    O     O_3   0.506490 0.338900 0.934520 -0.381922
O10   O     O_3   0.493510 0.838900 0.065480 -0.382020
V1    V     V_3+5 0.498800 0.064400 0.012150 1.669957
V2    V     V_3+5 0.501200 0.564400 0.987850 1.670025
C5    C     C_R   0.683426 0.803493 0.768425 0.598884
C6    C     C_R   0.316570 0.303685 0.231580 0.598787
C7    C     C_R   0.633736 0.849965 0.910288 -0.424692
C8    C     C_R   0.366258 0.349986 0.089693 -0.424757
C9    C     C_R   0.870929 0.880074 0.215508 -0.223102
C10   C     C_R   0.129064 0.379903 0.784463 -0.223204
C11   C     C_R   0.826350 0.876999 0.253568 -0.186923
C12   C     C_R   0.173642 0.376665 0.746401 -0.186823
C13   C     C_R   0.779204 0.868165 0.175489 0.731187
C14   C     C_R   0.220786 0.367790 0.824485 0.731177
C15   C     C_R   0.775104 0.871321 0.054349 0.067474
C16   C     C_R   0.224887 0.371135 0.945621 0.067522
C17   C     C_R   0.821697 0.865488 0.016886 -0.082534
C18   C     C_R   0.178296 0.365433 0.983089 -0.082518
C19   C     C_R   0.727466 0.868330 0.968915 -0.158234
C20   C     C_R   0.272525 0.368218 0.031053 -0.158212
C21   C     C_R   0.728717 0.837400 0.851346 -0.281552
C22   C     C_R   0.271276 0.337443 0.148638 -0.281437
C23   C     C_R   0.775037 0.840602 0.817776 0.814413
C24   C     C_R   0.224956 0.340679 0.182206 0.814388
C25   C     C_R   0.820454 0.856758 0.898973 -0.208089
C26   C     C_R   0.179539 0.356805 0.101005 -0.208097
C27   C     C_R   0.678473 0.896720 0.992812 0.566659
C28   C     C_R   0.321514 0.396571 0.007133 0.566761
C29   C     C_R   0.637296 0.797401 0.800033 0.560992
C30   C     C_R   0.362702 0.297614 0.199986 0.560943
C31   C     C_R   0.869189 0.867160 0.098295 -0.046717
C32   C     C_R   0.130805 0.367110 0.901681 -0.046719
H1    H     H_    0.907097 0.886304 0.278063 0.132555
H2    H     H_    0.092895 0.386128 0.721906 0.132546
H3    H     H_    0.828337 0.877299 0.345211 0.165301
H4    H     H_    0.171654 0.376828 0.654756 0.165317
H5    H     H_    0.855056 0.856555 0.868058 0.127005
H6    H     H_    0.144937 0.356666 0.131924 0.127007
C33   C     C_R   0.090821 0.860407 0.312728 -0.069779
C34   C     C_R   0.909194 0.360460 0.687259 -0.069743
C35   C     C_R   0.407352 0.840789 0.686195 -0.232907
C36   C     C_R   0.592674 0.340648 0.313788 -0.233157
C37   C     C_R   0.104505 0.866051 0.519244 -0.139865
C38   C     C_R   0.895520 0.366264 0.480746 -0.139882
C39   C     C_R   0.071618 0.871606 0.410635 -0.180039
C40   C     C_R   0.928402 0.371750 0.589361 -0.180065
C41   C     C_R   0.143096 0.843813 0.323634 -0.107477
C42   C     C_R   0.856921 0.343850 0.676338 -0.107513
C43   C     C_R   0.178156 0.859170 0.432232 0.118235
C44   C     C_R   0.821865 0.359292 0.567740 0.118184
C45   C     C_R   0.158022 0.865529 0.533000 0.051301
C46   C     C_R   0.842002 0.365732 0.466976 0.051327
C47   C     C_R   0.232245 0.858951 0.443436 -0.008904
C48   C     C_R   0.767777 0.359057 0.556533 -0.008974
C49   C     C_R   0.265442 0.855629 0.554955 0.018136
C50   C     C_R   0.734581 0.355809 0.445014 0.018249
C51   C     C_R   0.244032 0.842594 0.651199 -0.108310
C52   C     C_R   0.755992 0.342893 0.348764 -0.108289
C53   C     C_R   0.191753 0.858921 0.643705 -0.069737
C54   C     C_R   0.808273 0.359196 0.356266 -0.069779
C55   C     C_R   0.254626 0.863268 0.347264 0.610298
C56   C     C_R   0.745396 0.363278 0.652708 0.610443
C57   C     C_R   0.306113 0.819057 0.358228 -0.071498
C58   C     C_R   0.693917 0.318956 0.641736 -0.071543
C59   C     C_R   0.338152 0.798284 0.469955 -0.097952
C60   C     C_R   0.661892 0.298140 0.530006 -0.098240
C61   C     C_R   0.319499 0.850307 0.567375 0.001973
C62   C     C_R   0.680527 0.350382 0.432602 0.002030
C63   C     C_R   0.388631 0.732822 0.487447 0.687091
C64   C     C_R   0.611449 0.232340 0.512486 0.687127
C65   C     C_R   0.422931 0.756607 0.593631 -0.197494
C66   C     C_R   0.577151 0.255997 0.406294 -0.197404
C67   C     C_R   0.355871 0.890210 0.672950 -0.041166
C68   C     C_R   0.644139 0.390319 0.327050 -0.040930
H7    H     H_    0.086629 0.857543 0.590542 0.165857
H8    H     H_    0.913401 0.357828 0.409456 0.165891
H9    H     H_    0.030905 0.878131 0.403029 0.107084
H10   H     H_    0.969115 0.378297 0.596981 0.107073
H11   H     H_    0.154538 0.813503 0.245229 0.182564
H12   H     H_    0.845474 0.313468 0.754731 0.182538
H13   H     H_    0.268047 0.812380 0.734487 0.204339
H14   H     H_    0.731977 0.312767 0.265464 0.204226
O11   O     O_R   0.955980 0.206520 0.854760 -0.540091
O12   O     O_R   0.044020 0.706520 0.145240 -0.540084
O13   O     O_R   0.063490 0.536770 0.945200 -0.540821
O14   O     O_R   0.936510 0.036770 0.054800 -0.540814
C69   C     C_R   0.082302 0.369289 0.936835 0.700431
C70   C     C_R   0.917693 0.869299 0.063148 0.700443
O15   O     O_R   0.957530 0.536190 0.842880 -0.536597
O16   O     O_R   0.042470 0.036190 0.157120 -0.536588
O17   O     O_R   0.937350 0.707210 0.042130 -0.540198
O18   O     O_R   0.062650 0.207210 0.957870 -0.540196
C71   C     C_R   0.943484 0.367707 0.802098 0.695213
C72   C     C_R   0.056522 0.867694 0.197896 0.695212
O19   O     O_3   0.993540 0.373870 0.065440 -0.376299
O20   O     O_3   0.006460 0.873870 0.934560 -0.376306
V3    V     V_3+5 0.001200 0.648440 0.987860 1.454527
V4    V     V_3+5 0.998800 0.148440 0.012140 1.454534
F1    F     F_    0.595792 0.741022 0.721231 -0.586255
F2    F     F_    0.404210 0.241405 0.278836 -0.585747
C73   C     C_2   0.343981 0.014664 0.761760 0.836387
O21   O     O_2   0.338803 0.182937 0.742131 -0.451467
O22   O     O_R   0.343167 0.942418 0.870247 -0.652694
H15   H     H_    0.334546 0.041326 0.923621 0.292927
C74   C     C_2   0.656012 0.514834 0.238249 0.836108
O23   O     O_2   0.661280 0.683044 0.257982 -0.451530
O24   O     O_R   0.656757 0.442700 0.129698 -0.652632
H16   H     H_    0.665412 0.541607 0.076362 0.292840
C75   C     C_2   0.476870 0.715135 0.602325 0.959832
O25   O     O_2   0.507998 0.840466 0.632195 -0.478288
O26   O     O_R   0.492007 0.536406 0.574807 -0.586248
H17   H     H_    0.530115 0.526847 0.583370 0.362028
C76   C     C_2   0.523254 0.213816 0.397527 0.960192
O27   O     O_2   0.492048 0.339070 0.368240 -0.477856
O28   O     O_R   0.508237 0.034448 0.424203 -0.587031
H18   H     H_    0.470125 0.024381 0.415467 0.361514
C77   C     C_2   0.325691 0.820874 0.250950 0.888550
O29   O     O_2   0.368671 0.876364 0.252948 -0.504825
O30   O     O_R   0.293670 0.769488 0.145680 -0.641644
H19   H     H_    0.310435 0.785023 0.078644 0.320399
C78   C     C_2   0.674319 0.320719 0.748989 0.888599
O31   O     O_2   0.631305 0.375920 0.746921 -0.504556
O32   O     O_R   0.706353 0.269616 0.854310 -0.641591
H20   H     H_    0.689569 0.285122 0.921318 0.320437
F3    F     F_    0.228379 0.927431 0.243410 -0.684931
F4    F     F_    0.771633 0.427431 0.756565 -0.684827
F5    F     F_    0.404583 0.638400 0.403324 -0.604236
F6    F     F_    0.595540 0.137656 0.596577 -0.604147
F7    F     F_    0.776919 0.827231 0.705338 -0.628443
F8    F     F_    0.223074 0.327400 0.294649 -0.628467
F9    F     F_    0.683605 0.766600 0.656877 -0.583035
F10   F     F_    0.316394 0.266925 0.343149 -0.582985
F11   F     F_    0.672700 0.983934 0.089838 -0.586745
F12   F     F_    0.327274 0.483609 0.910037 -0.586736
F13   F     F_    0.739189 0.843186 0.222598 -0.607629
F14   F     F_    0.260798 0.342514 0.777398 -0.607774
C79   C     C_2   0.175186 0.865834 0.755166 0.746418
O33   O     O_2   0.201893 0.794629 0.841730 -0.542538
O34   O     O_R   0.131243 0.961732 0.764466 -0.679856
H21   H     H_    0.124837 0.954286 0.844703 0.307673
C80   C     C_2   0.824841 0.366121 0.244806 0.746361
O35   O     O_2   0.798130 0.294977 0.158235 -0.542535
O36   O     O_R   0.868793 0.461942 0.235516 -0.679861
H22   H     H_    0.875204 0.454478 0.155283 0.307686

loop_
_geom_bond_atom_site_label_1
_geom_bond_atom_site_label_2
_ccdc_geom_bond_type
C50   C62   A    
C48   C50   A    
O14   V4    S    
C15   C17   A    
C55   C57   A    
O1    C3    A    
C46   C54   A    
O2    C4    A    
C2    O7    A    
C36   C66   A    
O26   H17   S    
C53   C79   S    
O5    C3    A    
C56   F4    S    
C39   H9    S    
C7    C27   A    
C23   C25   A    
C58   C60   A    
C77   O29   D    
C51   H13   S    
C79   O34   S    
C8    C28   A    
C32   C69   S    
C60   C62   A    
C38   H8    S    
O15   V3    S    
O22   H15   S    
C48   C56   A    
C57   C59   A    
C47   C55   A    
O20   V3    S    
C18   C26   A    
C42   C44   A    
C51   C53   A    
C30   F2    S    
C44   C46   A    
C34   C42   A    
C6    C30   A    
O13   C69   A    
C9    C31   A    
C10   C32   A    
O20   V4    S    
C47   C49   A    
C37   C45   A    
C64   F6    S    
O34   H21   S    
C38   C46   A    
C33   C39   A    
C80   O36   S    
O11   C71   A    
O32   H20   S    
C69   O18   A    
O6    V2    S    
O17   V3    S    
C17   C31   A    
O19   V3    S    
C18   C32   A    
C5    C21   A    
C63   C65   A    
C9    H1    S    
C42   H12   S    
C9    C11   A    
O15   C71   A    
C34   C40   A    
C3    C8    S    
C41   C43   A    
C11   H3    S    
C44   C48   A    
C15   C19   A    
C12   H4    S    
C1    C36   S    
C16   C20   A    
C49   C61   A    
C31   C70   S    
O4    C2    A    
C35   C65   A    
C36   C68   A    
C74   O24   S    
C52   C54   A    
C70   O17   A    
C49   C51   A    
C20   C22   A    
O4    V2    S    
C25   H5    S    
C60   C64   A    
C19   C27   A    
C59   C63   A    
O6    C4    A    
C27   F11   S    
C19   C21   A    
C59   C61   A    
C7    C29   A    
C13   F13   S    
O1    V2    S    
C41   H11   S    
C65   C75   S    
O24   H16   S    
C14   F14   S    
O2    V1    S    
C40   H10   S    
C75   O25   D    
C56   C58   A    
C23   F7    S    
C10   H2    S    
C45   C53   A    
C34   C71   S    
C64   C66   A    
C67   C73   S    
C37   C39   A    
C78   O31   D    
O19   V4    S    
C10   C12   A    
O16   V4    S    
C33   C41   A    
C2    C35   S    
O28   H18   S    
C61   C67   A    
C20   C28   A    
O3    V1    S    
C76   O28   S    
C73   O21   D    
C66   C76   S    
C63   F5    S    
O12   C72   A    
C54   C80   S    
C52   H14   S    
C14   C16   A    
C43   C45   A    
C12   C14   A    
O3    C1    A    
O11   V4    S    
C8    C30   A    
C58   C78   S    
C26   H6    S    
C13   C15   A    
O12   V3    S    
O14   C70   A    
C28   F12   S    
C5    F9    S    
C24   F8    S    
C6    F10   S    
O13   V3    S    
O7    V1    S    
C16   C18   A    
O8    V2    S    
C74   O23   D    
C24   C26   A    
O18   V4    S    
C76   O27   D    
C55   F3    S    
C6    C22   A    
C33   C72   S    
C4    C7    S    
O5    V1    S    
C21   C23   A    
C38   C40   A    
O16   C72   A    
C68   C74   S    
C22   C24   A    
C11   C13   A    
C37   H7    S    
O30   H19   S    
C5    C29   A    
C75   O26   S    
C43   C47   A    
C62   C68   A    
C1    O8    A    
C50   C52   A    
C29   F1    S    
O9    V2    S    
C17   C25   A    
O36   H22   S    
C78   O32   S    
O10   V1    S    
C35   C67   A    
C73   O22   S    
C80   O35   D    
C79   O33   D    
C57   C77   S    
C77   O30   S    
