data_mof_unit_pretest_395.cif
_audit_creation_date              2012-12-10T18:55:59-0500
_audit_creation_method            fapswitch 2.2
_symmetry_space_group_name_H-M    P1
_symmetry_Int_Tables_number       1
_space_group_crystal_system       triclinic
_cell_length_a                    10.815967
_cell_length_b                    9.808308
_cell_length_c                    14.96963
_cell_angle_alpha                 89.878426
_cell_angle_beta                  89.960796
_cell_angle_gamma                 89.852488
_cell_volume                      1588.06398876

loop_
_atom_site_label
_atom_site_type_symbol
_atom_type_description
_atom_site_fract_x
_atom_site_fract_y
_atom_site_fract_z
_atom_type_partial_charge
C1    C     C_R   0.259395 0.500198 0.499699 0.997019
C2    C     C_R   0.936543 0.619659 0.475766 0.299006
C3    C     C_R   0.937726 0.380169 0.522001 0.330673
C4    C     C_R   0.059898 0.625658 0.499207 0.307805
C5    C     C_R   0.502925 0.618329 0.091724 -0.160890
C6    C     C_R   0.506400 0.382783 0.908366 -0.161099
C7    C     C_R   0.421101 0.612418 0.902674 -0.163846
C8    C     C_R   0.423054 0.386808 0.097151 -0.165231
C9    C     C_R   0.515033 0.618029 0.183503 -0.155663
C10   C     C_R   0.518757 0.383136 0.816589 -0.155585
C11   C     C_R   0.435542 0.613691 0.810989 -0.164723
C12   C     C_R   0.740062 0.499874 0.499883 1.060881
C13   C     C_R   0.437270 0.385634 0.188841 -0.184861
C14   C     C_R   0.484631 0.500743 0.231930 -0.015641
C15   C     C_R   0.485435 0.499454 0.768047 -0.015169
C16   C     C_R   0.458122 0.502209 0.048289 0.113074
C17   C     C_R   0.458550 0.497873 0.951656 0.110105
C18   C     C_R   0.872199 0.499819 0.499258 -0.427764
C19   C     C_R   0.126336 0.500497 0.499028 -0.436016
C20   C     C_R   0.497515 0.500158 0.327615 0.885883
C21   C     C_R   0.497860 0.499872 0.672370 0.896478
C22   C     C_R   0.528920 0.071628 0.575669 0.024460
C23   C     C_R   0.471068 0.928332 0.424335 0.024363
C24   C     C_R   0.471075 0.072244 0.424340 0.047266
C25   C     C_R   0.529227 0.927698 0.575613 -0.031501
C26   C     C_R   0.060927 0.375178 0.498223 0.232476
H1    H     H_    0.552534 0.125641 0.636115 0.124226
H2    H     H_    0.556431 0.293812 0.783921 0.146148
H3    H     H_    0.406930 0.703220 0.773764 0.167121
H4    H     H_    0.410620 0.295382 0.225902 0.172192
H5    H     H_    0.160814 0.305594 0.325282 0.337501
H6    H     H_    0.744919 0.757619 0.295439 0.366456
H7    H     H_    0.754626 0.237848 0.705255 0.360512
H8    H     H_    0.253596 0.845396 0.638065 0.372908
H9    H     H_    0.447368 0.874278 0.363897 0.128757
H10   H     H_    0.447656 0.126686 0.363837 0.145724
H11   H     H_    0.553070 0.873155 0.636029 0.131592
H12   H     H_    0.532258 0.707483 0.054594 0.137360
H13   H     H_    0.537755 0.294438 0.945610 0.137942
H14   H     H_    0.382466 0.701215 0.935457 0.142022
H15   H     H_    0.386615 0.297230 0.064255 0.142481
H16   H     H_    0.550295 0.708245 0.216231 0.148108
N1    N     N_R   0.500000 0.857200 0.500000 -0.080414
N2    N     N_R   0.500000 0.142800 0.500000 -0.081143
O1    O     O_R   0.316770 0.614620 0.499990 -0.560129
O2    O     O_2   0.016985 0.126755 0.425290 -0.155588
O3    O     O_3   0.211639 0.248676 0.365900 -0.566976
O4    O     O_2   0.803943 0.852353 0.460569 -0.210803
O5    O     O_2   0.975504 0.821115 0.355619 -0.216790
O6    O     O_3   0.777040 0.679647 0.330654 -0.586812
O7    O     O_2   0.808397 0.146157 0.535030 -0.215046
O8    O     O_2   0.979582 0.176822 0.640040 -0.219877
O9    O     O_3   0.779134 0.315521 0.666821 -0.589978
O10   O     O_2   0.191756 0.852659 0.466361 -0.226524
O11   O     O_2   0.014881 0.876799 0.567274 -0.152461
O12   O     O_R   0.683230 0.385380 0.500010 -0.564049
O13   O     O_3   0.210249 0.757758 0.628606 -0.565161
O14   O     O_R   0.683230 0.614620 0.500010 -0.562134
O15   O     O_R   0.316770 0.385380 0.499990 -0.552357
O16   O     O_R   0.499990 0.614660 0.369060 -0.631019
O17   O     O_R   0.500010 0.385340 0.630940 -0.628174
O18   O     O_R   0.500010 0.614660 0.630940 -0.641434
O19   O     O_R   0.499990 0.385340 0.369060 -0.634903
O20   O     O_2   0.194157 0.146335 0.525673 -0.194256
S1    S     S_3+6 0.120309 0.218327 0.454745 0.134267
S2    S     S_3+6 0.873640 0.749837 0.405423 0.101837
S3    S     S_3+6 0.876569 0.248077 0.591191 0.101705
S4    S     S_3+6 0.118844 0.784408 0.539252 0.137312
Zn1   Zn    Zn3+2 0.500000 0.653120 0.500000 1.046595
Zn2   Zn    Zn3+2 0.500000 0.346880 0.500000 1.061766

loop_
_geom_bond_atom_site_label_1
_geom_bond_atom_site_label_2
_ccdc_geom_bond_type
O17   Zn2   S    
C6    C10   A    
H8    O13   S    
C2    C4    A    
C9    C14   A    
O14   Zn1   S    
C5    C9    A    
C8    C13   A    
C20   O16   A    
C23   H9    S    
C4    C19   A    
O19   Zn2   S    
C7    H14   S    
C12   O14   A    
O20   S1    D    
C25   N1    A    
C20   O19   A    
C12   C18   S    
O11   S4    D    
C9    H16   S    
C23   N1    A    
C8    C16   A    
C24   H10   S    
C13   C14   A    
C7    C11   A    
O6    S2    S    
H6    O6    S    
C21   O18   A    
C12   O12   A    
O8    S3    D    
C11   C15   A    
O16   Zn1   S    
O2    S1    D    
O9    S3    S    
O18   Zn1   S    
O15   Zn2   S    
O12   Zn2   S    
C10   C15   A    
C1    O15   A    
H7    O9    S    
C22   H1    S    
C24   N2    A    
C3    S3    S    
C1    C19   S    
C2    C18   A    
O5    S2    D    
O13   S4    S    
O1    Zn1   S    
C6    C17   A    
C14   C20   S    
C13   H4    S    
C15   C21   S    
O10   S4    D    
C8    H15   S    
C11   H3    S    
C3    C18   A    
N1    Zn1   S    
C1    O1    A    
C10   H2    S    
O7    S3    D    
C4    S4    S    
C19   C26   A    
C6    H13   S    
C5    C16   A    
H5    O3    S    
C23   C24   A    
O4    S2    D    
C5    H12   S    
C26   S1    S    
C21   O17   A    
O3    S1    S    
C3    C26   A    
C22   N2    A    
N2    Zn2   S    
C25   H11   S    
C16   C17   S    
C2    S2    S    
C22   C25   A    
C7    C17   A    
