data_mof_unit_pretest_457.cif
_audit_creation_date              2012-12-10T18:29:37-0500
_audit_creation_method            fapswitch 2.2
_symmetry_space_group_name_H-M    P1
_symmetry_Int_Tables_number       1
_space_group_crystal_system       triclinic
_cell_length_a                    11.547236
_cell_length_b                    15.045656
_cell_length_c                    15.411909
_cell_angle_alpha                 81.749526
_cell_angle_beta                  89.848034
_cell_angle_gamma                 104.593852
_cell_volume                      2562.28505996

loop_
_atom_site_label
_atom_site_type_symbol
_atom_type_description
_atom_site_fract_x
_atom_site_fract_y
_atom_site_fract_z
_atom_type_partial_charge
C1    C     C_R   0.480758 0.441459 0.661879 0.931491
C2    C     C_R   0.516304 0.558360 0.337919 0.915323
C3    C     C_R   0.461263 0.349209 0.934555 0.108085
C4    C     C_R   0.447755 0.632467 0.072779 0.126924
C5    C     C_R   0.435000 0.500717 0.957788 0.108034
C6    C     C_R   0.458466 0.478307 0.047348 0.062910
C7    C     C_R   0.456945 0.385892 0.080828 -0.100121
C8    C     C_R   0.425836 0.591691 0.927231 -0.128273
C9    C     C_R   0.463837 0.323116 0.024750 -0.172480
C10   C     C_R   0.422860 0.653930 0.985093 -0.229685
C11   C     C_R   0.646986 0.832225 0.656709 0.236143
C12   C     C_R   0.350709 0.165530 0.345106 0.289237
C13   C     C_R   0.639248 0.749694 0.620806 0.523320
C14   C     C_R   0.370062 0.252047 0.374021 0.568445
C15   C     C_R   0.514580 0.795287 0.509423 -0.163172
C16   C     C_R   0.473597 0.201575 0.497287 -0.180988
C17   C     C_R   0.534017 0.884236 0.534369 -0.067133
C18   C     C_R   0.457881 0.113007 0.471658 -0.055941
C19   C     C_R   0.596008 0.900212 0.612034 0.012715
C20   C     C_R   0.400834 0.097628 0.391678 -0.026703
C21   C     C_R   0.491690 0.956457 0.485957 0.137270
C22   C     C_R   0.502031 0.041313 0.520069 0.140786
C23   C     C_R   0.717983 0.501183 0.499679 0.912237
C24   C     C_R   0.282056 0.498936 0.499642 0.920270
C25   C     C_R   0.556953 0.051782 0.600963 -0.255883
C26   C     C_R   0.444366 0.947741 0.402640 -0.248388
C27   C     C_R   0.605393 0.983519 0.644734 -0.142737
C28   C     C_R   0.399989 0.016785 0.356760 -0.157580
C29   C     C_1   0.839147 0.502604 0.499040 -0.165540
C30   C     C_1   0.160864 0.497334 0.498565 -0.140315
C31   C     C_1   0.940980 0.501157 0.498456 0.012049
C32   C     C_1   0.058953 0.498503 0.498229 0.025224
C33   C     C_R   0.462601 0.403977 0.754547 -0.154122
C34   C     C_R   0.512457 0.593391 0.245225 -0.151345
C35   C     C_R   0.489958 0.293085 0.877180 -0.169727
C36   C     C_R   0.445299 0.694915 0.131528 -0.189256
C37   C     C_R   0.498638 0.323884 0.787411 -0.248314
C38   C     C_R   0.470482 0.672427 0.219001 -0.264499
C39   C     C_R   0.410415 0.449435 0.810935 0.355678
C40   C     C_R   0.533157 0.539031 0.183359 0.387507
C41   C     C_R   0.431874 0.433585 0.901101 -0.014705
C42   C     C_R   0.479489 0.548411 0.101689 -0.049043
H1    H     H_    0.475041 0.255347 0.051800 0.165326
H2    H     H_    0.407000 0.720805 0.960279 0.144618
H3    H     H_    0.564900 0.112311 0.632464 0.138635
H4    H     H_    0.443220 0.888993 0.369712 0.136446
H5    H     H_    0.456446 0.716122 0.266029 0.169341
H6    H     H_    0.533031 0.285316 0.743754 0.163816
H7    H     H_    0.514607 0.229507 0.901934 0.148170
H8    H     H_    0.418156 0.758346 0.110894 0.149370
H9    H     H_    0.454800 0.362632 0.150437 0.239081
H10   H     H_    0.421119 0.616537 0.858871 0.192643
H11   H     H_    0.649562 0.996280 0.705339 0.190651
H12   H     H_    0.366231 0.006512 0.292529 0.183332
H13   H     H_    0.522062 0.221594 0.553818 0.162160
H14   H     H_    0.456640 0.773515 0.457611 0.156743
N1    N     N_R   0.566020 0.731700 0.552730 -0.138400
N2    N     N_R   0.433980 0.268300 0.447270 -0.155774
O1    O     O_R   0.466720 0.383110 0.605620 -0.630474
O2    O     O_R   0.533280 0.616890 0.394380 -0.640364
O3    O     O_R   0.509090 0.531900 0.639510 -0.531288
O4    O     O_R   0.490910 0.468100 0.360490 -0.512842
O5    O     O_R   0.644370 0.425610 0.483050 -0.597053
O6    O     O_R   0.355630 0.574390 0.516950 -0.580686
O7    O     O_R   0.686740 0.574390 0.516930 -0.579966
O8    O     O_R   0.313260 0.425610 0.483070 -0.635237
Zn1   Zn    Zn3+2 0.471710 0.400660 0.477370 1.009189
Zn2   Zn    Zn3+2 0.528290 0.599340 0.522630 1.028186
S1    S     S_3+6 0.656168 0.486757 0.198635 0.014669
O9    O     O_2   0.709323 0.480049 0.111393 -0.293071
O10   O     O_2   0.750791 0.545995 0.247490 -0.320876
O11   O     O_3   0.612119 0.380026 0.257591 -0.548173
H15   H     H_    0.686814 0.359995 0.268653 0.378130
S2    S     S_3+6 0.285430 0.491764 0.773011 -0.004889
O12   O     O_2   0.327526 0.587044 0.720441 -0.334180
O13   O     O_2   0.214174 0.427215 0.715312 -0.313932
O14   O     O_3   0.196294 0.495691 0.858153 -0.551015
H16   H     H_    0.132795 0.523069 0.831510 0.384817
O15   O     O_3   0.343662 0.325542 0.320086 -0.566052
C43   C     C_3   0.219640 0.320268 0.323244 0.122510
H17   H     H_    0.204828 0.377495 0.355998 0.170839
H18   H     H_    0.162799 0.254747 0.360347 0.079255
C44   C     C_3   0.177213 0.335756 0.230086 -0.804005
H19   H     H_    0.079707 0.331081 0.231852 0.220100
H20   H     H_    0.225744 0.405736 0.196538 0.251711
H21   H     H_    0.194371 0.282970 0.191907 0.281710
O16   O     O_3   0.694712 0.681755 0.657071 -0.593886
C45   C     C_3   0.816553 0.719529 0.673974 0.124201
H22   H     H_    0.824211 0.727997 0.744291 0.193310
H23   H     H_    0.857334 0.787554 0.632428 0.139644
C46   C     C_3   0.890053 0.652693 0.656704 -0.807024
H24   H     H_    0.900394 0.653956 0.585022 0.254067
H25   H     H_    0.980622 0.674574 0.683006 0.221292
H26   H     H_    0.845796 0.581083 0.688735 0.264245
O17   O     O_3   0.709149 0.849073 0.731800 -0.634524
C47   C     C_3   0.634996 0.802162 0.805798 0.074589
H27   H     H_    0.614129 0.725638 0.806982 0.170380
H28   H     H_    0.549912 0.824335 0.806565 0.145634
C48   C     C_3   0.700709 0.825292 0.888330 -0.798663
H29   H     H_    0.722040 0.901341 0.889387 0.255397
H30   H     H_    0.644063 0.789133 0.947483 0.219514
H31   H     H_    0.785235 0.802709 0.889994 0.260359
O18   O     O_3   0.301040 0.154330 0.264264 -0.593392
C49   C     C_3   0.184695 0.093306 0.275697 0.049801
H32   H     H_    0.118506 0.130549 0.292964 0.151201
H33   H     H_    0.177695 0.032408 0.327714 0.136982
C50   C     C_3   0.149331 0.057286 0.189728 -0.797905
H34   H     H_    0.212539 0.017928 0.170934 0.247487
H35   H     H_    0.057453 0.010567 0.197193 0.215269
H36   H     H_    0.151182 0.116276 0.136906 0.261150

loop_
_geom_bond_atom_site_label_1
_geom_bond_atom_site_label_2
_ccdc_geom_bond_type
C21   C26   A    
C4    C36   A    
C25   H3    S    
C15   N1    A    
O17   C47   S    
O16   C45   S    
C49   H33   S    
C1    C33   S    
C39   C41   A    
O14   H16   S    
C11   C19   A    
C33   C39   A    
S2    O13   D    
O4    Zn1   S    
C34   C40   A    
O6    Zn2   S    
C35   C37   A    
C1    O1    A    
C5    C6    A    
C2    O2    A    
C13   N1    A    
C47   C48   S    
C7    C9    A    
C39   S2    S    
S1    O10   D    
O1    Zn1   S    
C48   H29   S    
C22   C25   A    
C47   H28   S    
C35   H7    S    
C50   H34   S    
C19   C27   A    
C8    H10   S    
C24   O8    A    
C2    C34   S    
C40   C42   A    
O8    Zn1   S    
C24   O6    A    
C18   C22   A    
C21   C22   A    
C50   H35   S    
C12   C20   A    
C43   C44   S    
C49   H32   S    
C24   C30   S    
C14   N2    A    
O5    Zn1   S    
C9    H1    S    
S2    O12   D    
C10   H2    S    
C12   O18   S    
C43   H18   S    
C40   S1    S    
C46   H24   S    
C28   H12   S    
C43   H17   S    
C20   C28   A    
S2    O14   S    
C33   C37   A    
S1    O11   S    
C3    C9    A    
C46   H25   S    
C44   H19   S    
C45   C46   S    
C3    C35   A    
O7    Zn2   S    
C47   H27   S    
C13   O16   S    
C44   H21   S    
C16   N2    A    
C14   O15   S    
C37   H6    S    
C38   H5    S    
C16   C18   A    
C44   H20   S    
C12   C14   A    
C50   H36   S    
N1    Zn2   S    
C4    C10   A    
C23   C29   S    
C36   H8    S    
C11   O17   S    
C15   C17   A    
C5    C41   A    
C3    C41   A    
C48   H30   S    
C34   C38   A    
C31   C32   S    
C45   H23   S    
O11   H15   S    
C1    O3    A    
C5    C8    A    
C27   H11   S    
C6    C7    A    
C25   C27   A    
C26   C28   A    
C15   H14   S    
C23   O7    A    
C36   C38   A    
C16   H13   S    
C7    H9    S    
C29   C31   T    
C46   H26   S    
C30   C32   T    
C11   C13   A    
O3    Zn2   S    
C4    C42   A    
C23   O5    A    
C17   C19   A    
C18   C20   A    
S1    O9    D    
C17   C21   A    
C26   H4    S    
O15   C43   S    
N2    Zn1   S    
C48   H31   S    
C45   H22   S    
O2    Zn2   S    
C8    C10   A    
C6    C42   A    
O18   C49   S    
C49   C50   S    
C2    O4    A    
