data_mof_unit_pretest_957.cif
_audit_creation_date              2012-12-10T16:55:49-0500
_audit_creation_method            fapswitch 2.2
_symmetry_space_group_name_H-M    P1
_symmetry_Int_Tables_number       1
_space_group_crystal_system       triclinic
_cell_length_a                    7.845589
_cell_length_b                    8.599031
_cell_length_c                    10.479933
_cell_angle_alpha                 92.548648
_cell_angle_beta                  85.351515
_cell_angle_gamma                 92.910631
_cell_volume                      703.209803753

loop_
_atom_site_label
_atom_site_type_symbol
_atom_type_description
_atom_site_fract_x
_atom_site_fract_y
_atom_site_fract_z
_atom_type_partial_charge
C1    C     C_R   0.544037 0.793962 0.497069 0.915155
C2    C     C_3   0.503247 0.500872 0.876957 -0.162586
C3    C     C_3   0.338101 0.519777 0.050438 -0.201633
C4    C     C_3   0.661899 0.480223 0.949562 -0.201633
C5    C     C_2   0.562104 0.953482 0.475091 0.115398
C6    C     C_2   0.437896 0.046518 0.524908 0.115398
C7    C     C_R   0.455963 0.206038 0.502931 0.915155
C8    C     C_R   0.501409 0.501177 0.742182 0.936791
C9    C     C_R   0.498591 0.498823 0.257818 0.936791
C10   C     C_3   0.447350 0.635852 0.967058 0.457588
C11   C     C_3   0.552650 0.364148 0.032942 0.457588
C12   C     C_3   0.605173 0.616954 0.041876 -0.230635
C13   C     C_3   0.394827 0.383046 0.958124 -0.230634
C14   C     C_3   0.496753 0.499128 0.123043 -0.162586
Cl1   Cl    Cl    0.378791 0.817510 0.920180 -0.442044
Cl2   Cl    Cl    0.621209 0.182490 0.079820 -0.442044
Cl3   Cl    Cl    0.041255 0.328147 0.353288 -0.369414
Cl4   Cl    Cl    0.958745 0.671853 0.646712 -0.369413
Cl5   Cl    Cl    0.729478 0.006624 0.357983 -0.426795
Cl6   Cl    Cl    0.270522 0.993376 0.642016 -0.426795
H1    H     H_    0.688995 0.712868 0.080319 0.230599
H2    H     H_    0.311005 0.287132 0.919681 0.230599
H3    H     H_    0.206674 0.536970 0.094822 0.220659
H4    H     H_    0.793326 0.463030 0.905177 0.220659
N1    N     N_2   0.950320 0.457950 0.465730 0.133303
N2    N     N_2   0.049680 0.542050 0.534270 0.133303
O1    O     O_R   0.389250 0.738570 0.508410 -0.578148
O2    O     O_R   0.610750 0.261430 0.491590 -0.578148
O3    O     O_R   0.678390 0.711620 0.486450 -0.565977
O4    O     O_R   0.321610 0.288380 0.513550 -0.565977
O5    O     O_R   0.355460 0.513510 0.697030 -0.584645
O6    O     O_R   0.644540 0.486490 0.302970 -0.584645
O7    O     O_R   0.644600 0.486560 0.675070 -0.606285
O8    O     O_R   0.355400 0.513440 0.324930 -0.606285
Zn1   Zn    Zn3+2 0.306940 0.517990 0.514670 1.158669
Zn2   Zn    Zn3+2 0.693060 0.482010 0.485330 1.158669

loop_
_geom_bond_atom_site_label_1
_geom_bond_atom_site_label_2
_ccdc_geom_bond_type
C2    C4    S    
C9    C14   S    
C6    C7    S    
C5    Cl5   S    
C4    C12   S    
C6    Cl6   S    
C11   Cl2   S    
C3    H3    S    
Cl4   N2    S    
C10   Cl1   S    
Cl3   N1    S    
C1    O3    A    
C7    O4    A    
C4    C11   S    
C11   C13   S    
O3    Zn2   S    
C9    O8    A    
C3    C14   S    
C10   C12   S    
O4    Zn1   S    
C1    C5    S    
O6    Zn2   S    
C12   C14   S    
C13   H2    S    
C8    O7    A    
C5    C6    D    
C4    H4    S    
C11   C14   S    
O5    Zn1   S    
N1    Zn2   S    
C2    C10   S    
N2    Zn1   S    
O7    Zn2   S    
O2    Zn2   S    
C1    O1    A    
O8    Zn1   S    
C3    C10   S    
C2    C13   S    
C9    O6    A    
O1    Zn1   S    
N1    N2    D    
C8    O5    A    
C12   H1    S    
C2    C8    S    
C7    O2    A    
C3    C13   S    
