data_mof_unit_pretest_978.cif
_audit_creation_date              2013-03-05T16:17:07-0500
_audit_creation_method            fapswitch 2.2
_symmetry_space_group_name_H-M    P1
_symmetry_Int_Tables_number       1
_space_group_crystal_system       triclinic
_cell_length_a                    8.462613
_cell_length_b                    19.188004
_cell_length_c                    18.917241
_cell_angle_alpha                 101.380778
_cell_angle_beta                  94.50419
_cell_angle_gamma                 92.588409
_cell_volume                      2996.30630378

loop_
_atom_site_label
_atom_site_type_symbol
_atom_site_description
_atom_site_fract_x
_atom_site_fract_y
_atom_site_fract_z
_atom_type_partial_charge
P1    P     P_3+3 0.945300 0.665790 0.568510 0.540173
O1    O     O_2   0.117290 0.676350 0.548250 -0.294470
O2    O     O_3   0.869060 0.586940 0.542720 -0.324666
O3    O     O_3   0.356990 0.628630 0.417250 -0.378111
O4    O     O_2   0.238611 0.753935 0.458136 -0.356676
O5    O     O_3   0.988066 0.678488 0.662288 -0.566419
O6    O     O_3   0.354517 0.733245 0.330503 -0.508009
H1    H     H_    0.218622 0.639525 0.297167 0.116541
C1    C     C_3   0.302812 0.671630 0.203715 -0.098657
H2    H     H_    0.287407 0.617317 0.169846 0.076990
H3    H     H_    0.192166 0.696568 0.191720 0.156256
P2    P     P_3+3 0.360080 0.438780 0.334620 0.524633
P3    P     P_3+3 0.907291 0.575616 0.283900 0.491927
O7    O     O_2   0.186600 0.460070 0.325400 -0.358681
O8    O     O_3   0.942970 0.591450 0.378940 -0.373127
O9    O     O_2   0.047462 0.534882 0.252884 -0.428564
O10   O     O_3   0.345589 0.350550 0.287758 -0.547380
O11   O     O_3   0.923141 0.654316 0.248307 -0.570210
C2    C     C_3   0.915493 0.716615 0.301921 0.494993
H4    H     H_    0.988859 0.712730 0.352252 0.048799
C3    C     C_3   0.987745 0.782536 0.276025 0.240866
H5    H     H_    0.116225 0.776573 0.274442 0.084783
C4    C     C_3   0.763109 0.369487 0.312043 0.405813
H6    H     H_    0.659248 0.384124 0.342536 0.122429
H7    H     H_    0.847291 0.416827 0.318275 0.066122
C5    C     C_3   0.704574 0.343812 0.232341 -0.743154
H8    H     H_    0.662607 0.286791 0.221784 0.327038
H9    H     H_    0.604308 0.374109 0.216606 0.196753
H10   H     H_    0.800769 0.351235 0.197579 0.250419
Ba1   Ba    Ba6+2 0.153490 0.533960 0.468530 1.690063
C6    C     C_3   0.850730 0.694524 0.697589 0.606632
H11   H     H_    0.743511 0.670320 0.662438 0.117445
C7    C     C_3   0.835657 0.775566 0.716145 -1.046167
H12   H     H_    0.751321 0.791687 0.675287 0.246356
H13   H     H_    0.950361 0.804995 0.715221 0.255919
H14   H     H_    0.792210 0.792996 0.770191 0.283273
C8    C     C_3   0.259663 0.306124 0.322238 0.524443
H15   H     H_    0.168071 0.333990 0.354472 -0.013744
C9    C     C_3   0.172355 0.244334 0.264915 0.319944
H16   H     H_    0.106304 0.209800 0.294892 -0.027793
P4    P     P_3+3 0.865000 0.334200 0.431430 0.519839
O12   O     O_2   0.693010 0.323600 0.451730 -0.287720
O13   O     O_3   0.941240 0.413050 0.457220 -0.362753
O14   O     O_3   0.453310 0.371360 0.582690 -0.328468
O15   O     O_3   0.840108 0.314686 0.336762 -0.554780
P5    P     P_3+3 0.892283 0.415511 0.717178 0.489975
O16   O     O_3   0.371310 0.539060 0.587050 -0.258927
O17   O     O_3   0.867330 0.408540 0.621000 -0.275242
O18   O     O_2   0.765540 0.466448 0.744254 -0.361447
O19   O     O_3   0.807471 0.334396 0.734570 -0.540825
Ba2   Ba    Ba6+2 0.656680 0.466030 0.531410 1.743237
P6    P     P_3+3 0.380507 0.720024 0.420374 0.561793
C10   C     C_3   0.326295 0.666274 0.283535 0.256357
H17   H     H_    0.426165 0.632458 0.289083 0.136172
O20   O     O_3   0.438990 0.460930 0.412890 -0.370723
C11   C     C_3   0.388906 0.705186 0.698815 0.520429
H18   H     H_    0.268917 0.680142 0.699422 0.045741
C12   C     C_3   0.415677 0.773761 0.760130 0.094737
H19   H     H_    0.518030 0.806332 0.747986 0.149553
P7    P     P_3+3 0.450966 0.567587 0.679461 0.546561
O21   O     O_2   0.623700 0.539890 0.674570 -0.344136
O22   O     O_3   0.505087 0.658668 0.711724 -0.632765
C13   C     C_3   0.887023 0.301978 0.788445 0.851804
C14   C     C_3   0.895229 0.351363 0.866099 -0.670388
H20   H     H_    0.020645 0.367686 0.886155 0.234829
H21   H     H_    0.836737 0.400849 0.861101 0.223512
P8    P     P_3+3 0.428392 0.283253 0.588108 0.609761
C15   C     C_3   0.432382 0.348667 0.722615 0.340682
H22   H     H_    0.305625 0.356126 0.710451 -0.047895
O23   O     O_2   0.570335 0.250157 0.549496 -0.302587
O24   O     O_3   0.477155 0.284614 0.680812 -0.410950
H23   H     H_    0.500138 0.394335 0.709182 0.116398
H24   H     H_    0.453429 0.407726 0.833037 0.090534
C16   C     C_3   0.475989 0.354106 0.804209 -0.097893
H25   H     H_    0.602577 0.349295 0.813953 0.156833
C17   C     C_R   0.997272 0.950728 0.535918 0.084042
C18   C     C_R   0.084710 0.905010 0.571007 0.111629
C19   C     C_R   0.229486 0.929020 0.607461 -0.255967
C20   C     C_R   0.292752 0.998273 0.613517 0.193373
C21   C     C_R   0.207140 0.046855 0.576272 -0.052560
C22   C     C_R   0.058223 0.021845 0.537093 -0.026829
C23   C     C_R   0.261713 0.118599 0.578090 0.248532
C24   C     C_R   0.173974 0.165879 0.541413 -0.228547
C25   C     C_R   0.023606 0.140082 0.503003 0.032533
C26   C     C_R   0.968084 0.067472 0.500466 0.046954
C27   C     C_R   0.228184 0.238887 0.543361 0.163722
C28   C     C_R   0.128253 0.282811 0.509880 -0.347580
C29   C     C_R   0.978132 0.261232 0.473193 0.130940
C30   C     C_R   0.926927 0.186540 0.468180 0.001654
C31   C     C_R   0.849444 0.924445 0.499578 0.082099
C32   C     C_R   0.789358 0.853342 0.500423 0.021141
C33   C     C_R   0.882979 0.806976 0.534055 -0.015785
C34   C     C_R   0.029302 0.834631 0.569623 -0.132439
H26   H     H_    0.296434 0.892325 0.631989 0.187094
H27   H     H_    0.172477 0.335480 0.508552 0.225414
H28   H     H_    0.101496 0.801824 0.597328 0.161403
C35   C     C_R   0.782834 0.156224 0.429096 -0.129153
C36   C     C_R   0.729590 0.083382 0.423868 0.072356
C37   C     C_R   0.820981 0.039790 0.461510 0.040309
C38   C     C_R   0.762959 0.968431 0.461320 0.006937
C39   C     C_R   0.586162 0.052300 0.381999 -0.039297
C40   C     C_R   0.532159 0.981458 0.381893 0.305719
C41   C     C_R   0.615255 0.941235 0.424561 -0.052146
C42   C     C_R   0.635970 0.829046 0.467568 -0.097951
C43   C     C_R   0.549648 0.874408 0.431785 -0.033367
C44   C     C_R   0.576362 0.758845 0.468066 0.373928
C45   C     C_R   0.675659 0.712573 0.497132 -0.279940
C46   C     C_R   0.827921 0.734627 0.530478 0.081745
H29   H     H_    0.712400 0.190386 0.402742 0.195707
H30   H     H_    0.430852 0.857296 0.407977 0.205352
H31   H     H_    0.635084 0.657423 0.492044 0.170128
N1    N     N_R   0.452728 0.560118 0.977524 0.024837
N2    N     N_R   0.507384 0.557351 0.044673 -0.010336
C47   C     C_2   0.600354 0.521461 0.301930 -0.407800
C48   C     C_3   0.726301 0.516455 0.249241 0.190756
C49   C     C_2   0.657994 0.524402 0.175369 -0.100929
C50   C     C_2   0.500858 0.509221 0.155722 -0.013504
C51   C     C_2   0.397333 0.489594 0.210496 -0.259115
C52   C     C_1   0.459468 0.489920 0.277422 0.250622
N3    N     N_R   0.299608 0.474990 0.050135 -0.055201
N4    N     N_R   0.246011 0.477259 0.982337 -0.063014
C53   C     C_R   0.323040 0.519197 0.944007 0.240755
C54   C     C_R   0.433640 0.513956 0.082045 0.147166
C55   C     C_R   0.384413 0.535577 0.817852 0.234521
C56   C     C_R   0.337526 0.525895 0.743196 -0.099887
C57   C     C_R   0.086444 0.464509 0.760475 0.090728
C58   C     C_R   0.124787 0.483897 0.835606 -0.357540
C59   C     C_R   0.276092 0.514834 0.865162 -0.071136
C60   C     C_R   0.190543 0.489658 0.716004 0.030911
H32   H     H_    0.737932 0.537337 0.136967 0.161830
H33   H     H_    0.273858 0.472388 0.194167 0.210282
H34   H     H_    0.037177 0.477098 0.871974 0.188087
H35   H     H_    0.631553 0.540312 0.359539 0.175663
C61   C     C_3   0.854415 0.660278 0.764961 -0.300762
C62   C     C_3   0.999301 0.681795 0.818811 -0.700225
H36   H     H_    0.107725 0.667905 0.791470 0.248506
H37   H     H_    0.002125 0.739305 0.843495 0.272440
H38   H     H_    0.993514 0.651503 0.862980 0.270371
H39   H     H_    0.748284 0.673763 0.793835 0.263815
H40   H     H_    0.852509 0.601727 0.747184 0.232162
N5    N     N_R   0.374935 0.279758 0.368970 0.165710
O25   O     O_R   0.389750 0.310209 0.436601 -0.414950
O26   O     O_R   0.498928 0.252618 0.340722 -0.421788
N6    N     N_R   0.056278 0.270305 0.216476 0.240188
O27   O     O_R   0.095328 0.323743 0.187019 -0.384163
O28   O     O_R   0.934876 0.227750 0.186604 -0.343429
N7    N     N_R   0.281975 0.201589 0.221015 0.268144
O29   O     O_R   0.370643 0.230519 0.180112 -0.301335
O30   O     O_R   0.267880 0.132540 0.211479 -0.341893
N8    N     N_R   0.437326 0.709922 0.182118 0.320330
O31   O     O_R   0.570912 0.679696 0.174026 -0.319041
O32   O     O_R   0.417700 0.769643 0.160845 -0.196482
N9    N     N_R   0.408257 0.722226 0.627610 0.201601
O33   O     O_R   0.443827 0.786755 0.619852 -0.542550
O34   O     O_R   0.417528 0.670490 0.572837 -0.364560
N10   N     N_R   0.455472 0.756623 0.831310 0.287759
O35   O     O_R   0.349340 0.726039 0.863134 -0.355661
O36   O     O_R   0.589651 0.781576 0.867834 -0.325602
C63   C     C_3   0.271790 0.819888 0.763637 -0.506050
C64   C     C_3   0.308570 0.892897 0.813162 -0.654712
H41   H     H_    0.332205 0.887202 0.870254 0.298292
H42   H     H_    0.413699 0.920502 0.796988 0.234918
H43   H     H_    0.205131 0.926012 0.809443 0.242341
H44   H     H_    0.231076 0.827327 0.709169 0.192878
H45   H     H_    0.172919 0.792608 0.783862 0.239301
N11   N     N_R   0.922471 0.787996 0.202995 0.278998
O37   O     O_R   0.016380 0.784931 0.151330 -0.306523
O38   O     O_R   0.776459 0.803782 0.190497 -0.183443
N12   N     N_R   0.800587 0.233151 0.787570 0.242680
O39   O     O_R   0.855841 0.189650 0.826945 -0.401510
O40   O     O_R   0.690261 0.208063 0.736174 -0.233056
C65   C     C_3   0.052652 0.283965 0.767432 -0.415696
C66   C     C_3   0.049591 0.243504 0.689629 -0.727367
H46   H     H_    0.996372 0.188426 0.683434 0.274405
H47   H     H_    0.985638 0.270967 0.650701 0.255272
H48   H     H_    0.172740 0.241220 0.676571 0.254755
H49   H     H_    0.127079 0.333577 0.775391 0.157637
H50   H     H_    0.106393 0.250469 0.803293 0.270875
C67   C     C_3   0.817170 0.323642 0.927499 -0.278203
C68   C     C_3   0.936739 0.292356 0.975759 -0.542628
H51   H     H_    0.023746 0.335017 0.006055 0.241824
H52   H     H_    0.873416 0.268754 0.015497 0.251346
H53   H     H_    0.002696 0.250607 0.943400 0.286723
H54   H     H_    0.767626 0.369373 0.962824 0.205819
H55   H     H_    0.714736 0.285030 0.907077 0.265989
N13   N     N_R   0.393523 0.302042 0.837048 0.247368
O41   O     O_R   0.436006 0.236883 0.826411 -0.266266
O42   O     O_R   0.317098 0.324902 0.893325 -0.436623
C69   C     C_3   0.454993 0.009610 0.657971 -0.217627
C70   C     C_3   0.587948 0.987827 0.610610 -0.825598
H56   H     H_    0.578872 0.929188 0.591762 0.250936
H57   H     H_    0.578216 0.013601 0.563290 0.271615
H58   H     H_    0.705135 0.003826 0.641716 0.262375
H59   H     H_    0.484974 0.060917 0.694087 0.277286
H60   H     H_    0.458760 0.975467 0.699106 0.156480
N14   N     N_R   0.393804 0.146340 0.627246 0.243484
O43   O     O_R   0.536741 0.138883 0.607278 -0.356104
O44   O     O_R   0.371325 0.163217 0.695530 -0.346035
C71   C     C_3   0.478804 0.094103 0.341475 -0.218137
C72   C     C_3   0.360132 0.128540 0.392177 -0.719567
H61   H     H_    0.303655 0.089294 0.419624 0.253970
H62   H     H_    0.421833 0.171171 0.434578 0.272963
H63   H     H_    0.264187 0.150126 0.361608 0.237930
H64   H     H_    0.547626 0.131950 0.317237 0.232912
H65   H     H_    0.412663 0.059300 0.293560 0.259168
N15   N     N_R   0.393301 0.949340 0.336391 0.230848
O45   O     O_R   0.252393 0.965252 0.354558 -0.349486
O46   O     O_R   0.407810 0.898853 0.280707 -0.255774
N16   N     N_R   0.751321 0.724864 0.319002 0.231633
O47   O     O_R   0.674740 0.780138 0.310087 -0.316249
O48   O     O_R   0.680175 0.675383 0.344533 -0.490656
N17   N     N_R   0.542789 0.562595 0.844750 0.246680
O49   O     O_R   0.643729 0.519336 0.864234 -0.429009
O50   O     O_R   0.569217 0.630167 0.871134 -0.310152
N18   N     N_R   0.134812 0.488080 0.643673 0.253309
O51   O     O_R   0.035117 0.533760 0.630166 -0.323800
O52   O     O_R   0.166047 0.436152 0.592925 -0.407247
N19   N     N_R   0.974333 0.848456 0.328721 0.251202
O53   O     O_R   0.054723 0.857213 0.391571 -0.397625
O54   O     O_R   0.904756 0.902215 0.310402 -0.270533

loop_
_geom_bond_atom_site_label_1
_geom_bond_atom_site_label_2
_geom_bond_distance
_ccdc_geom_bond_type
C65   H49   1.095437 S    
C62   H38   1.110807 S    
Ba1   Ba2   4.657526 S    
P4    O12   1.548921 D    
C57   C58   1.404171 A    
C4    O15   1.398933 S    
P4    O13   1.585705 S    
H24   C16   1.097760 S    
C2    H4    1.112176 S    
Ba2   O21   2.839088 S    
C32   C42   1.411685 A    
C28   C29   1.402721 A    
C42   C44   1.418942 A    
C47   C48   1.508993 S    
C31   C32   1.437843 A    
C62   H36   1.105742 S    
Ba2   O20   2.771038 S    
C18   C19   1.371065 A    
C11   H18   1.105465 S    
P5    O18   1.533427 D    
C5    H8    1.109341 S    
C39   C40   1.413952 A    
C8    N5    1.440389 S    
P3    O11   1.774522 S    
O3    P6    1.744758 S    
P1    Ba1   3.481040 S    
N10   O35   1.300096 A    
C2    C3    1.560621 S    
C43   H30   1.077986 S    
O6    P6    1.766250 S    
O11   C2    1.414423 S    
C17   C22   1.432237 A    
C12   C63   1.535357 S    
N18   O52   1.292457 A    
C63   C64   1.527725 S    
C61   H40   1.106328 S    
C65   C66   1.520159 S    
C21   C22   1.423409 A    
N15   O46   1.300588 A    
C13   N12   1.477062 S    
C44   C45   1.408641 A    
C15   C16   1.540470 S    
C48   C49   1.508466 S    
C71   H65   1.108376 S    
C7    H14   1.107952 S    
C16   N13   1.456356 S    
C49   C50   1.354976 D    
P7    O22   1.760531 S    
P1    O1    1.548553 D    
N12   O39   1.302345 A    
C4    C5    1.526073 S    
C18   C34   1.403975 A    
C51   C52   1.330966 D    
C42   C43   1.400630 A    
C51   H33   1.083595 S    
C70   H58   1.110655 S    
N16   O48   1.293154 A    
O16   P7    1.792779 S    
C58   H34   1.070902 S    
C69   H59   1.088624 S    
C33   C46   1.431232 A    
O17   Ba2   2.776321 S    
N7    O29   1.301158 A    
C15   H22   1.101007 S    
C28   H27   1.067417 S    
P2    O10   1.743248 S    
C4    H6    1.105505 S    
C6    C7    1.538538 S    
O4    P6    1.548378 D    
N9    O34   1.295803 A    
C1    H2    1.106656 S    
C23   N14   1.408982 S    
C47   C52   1.319083 D    
C68   H53   1.108381 S    
O12   Ba2   2.891103 S    
C55   C59   1.426950 A    
C11   O22   1.396627 S    
P2    Ba1   3.459369 S    
C29   C30   1.461043 A    
O5    C6    1.401613 S    
P6    C44   1.871995 S    
C71   C72   1.525205 S    
N17   O49   1.299932 A    
C2    N16   1.459408 S    
C3    H5    1.100528 S    
N11   O38   1.300253 A    
O19   C13   1.434959 S    
N12   O40   1.296475 A    
C69   C70   1.515384 S    
O7    Ba1   2.838998 S    
C6    C61   1.543780 S    
C31   C38   1.409071 A    
N1    N2    1.329245 A    
C68   H52   1.110443 S    
C35   C36   1.431066 A    
C66   H47   1.108700 S    
N16   O47   1.299531 A    
P5    O17   1.792721 S    
C1    N8    1.455528 S    
C16   H25   1.083853 S    
P1    O5    1.748742 S    
P2    O20   1.545836 S    
C64   H43   1.110481 S    
Ba1   O16   2.771697 S    
C25   C26   1.440533 A    
N6    O28   1.300967 A    
C32   C33   1.425443 A    
C14   C67   1.549523 S    
O2    Ba2   2.832951 S    
N15   O45   1.299660 A    
C72   H61   1.107202 S    
O16   Ba2   3.004401 S    
C55   N17   1.431797 S    
C57   C60   1.398184 A    
C12   H19   1.110246 S    
C66   H46   1.110543 S    
C38   C41   1.406987 A    
C3    N11   1.472151 S    
C20   C21   1.459567 A    
C30   C35   1.412998 A    
P7    O21   1.581074 D    
P1    O2    1.585704 S    
C64   H42   1.108980 S    
C60   N18   1.405921 S    
O2    Ba1   2.997573 S    
N18   O51   1.290992 A    
C70   H56   1.108407 S    
N1    C53   1.356257 A    
C8    H15   1.114238 S    
C26   C37   1.420081 A    
C56   C60   1.405522 A    
P2    C52   1.824423 S    
C35   H29   1.072890 S    
C69   H60   1.111279 S    
N19   O54   1.301800 A    
C24   C25   1.431148 A    
N2    C54   1.355470 A    
P3    O8    1.762606 S    
C63   H44   1.098863 S    
C15   H23   1.107519 S    
C39   C71   1.501874 S    
C7    H12   1.109105 S    
C41   C43   1.409939 A    
O10   C8    1.385214 S    
C17   C18   1.403204 A    
C40   N15   1.438036 S    
N4    C53   1.362121 A    
P3    C48   1.859025 S    
C12   N10   1.465677 S    
C11   N9    1.466901 S    
O14   Ba2   2.806796 S    
C21   C23   1.425115 A    
N17   O50   1.296585 A    
C23   C24   1.443640 A    
C34   H28   1.076501 S    
C3    N19   1.462739 S    
C1    H3    1.098719 S    
N11   O37   1.301453 A    
N8    O32   1.300526 A    
Ba1   O13   2.832300 S    
C1    C10   1.531675 S    
C25   C30   1.452909 A    
O6    C10   1.409313 S    
C45   C46   1.398226 A    
N13   O42   1.301372 A    
C58   C59   1.411536 A    
C61   H39   1.101915 S    
N3    N4    1.336050 A    
C27   C28   1.420429 A    
O8    Ba1   2.775649 S    
C17   C31   1.401103 A    
C67   H54   1.112719 S    
C66   H48   1.090563 S    
C65   H50   1.109128 S    
C62   H37   1.108537 S    
P4    C29   1.984912 S    
P7    C56   1.873051 S    
P8    C27   1.916225 S    
C70   H57   1.104309 S    
N7    O30   1.300068 A    
C19   C20   1.389823 A    
C45   H31   1.081108 S    
P5    C57   1.897306 S    
C6    H11   1.107444 S    
P2    O7    1.547474 D    
N14   O43   1.300927 A    
H1    C10   1.098692 S    
N3    C54   1.359309 A    
C10   H17   1.099459 S    
C61   C62   1.517783 S    
C67   H55   1.107270 S    
C67   C68   1.530943 S    
C36   C39   1.432990 A    
Ba1   O20   3.005341 S    
P5    O19   1.784426 S    
C5    H9    1.104395 S    
C37   C38   1.432818 A    
O1    Ba1   2.890500 S    
N6    O27   1.301898 A    
P8    O23   1.550276 D    
C64   H41   1.110417 S    
N5    O26   1.298228 A    
C50   C54   1.484762 S    
C8    C9    1.554073 S    
C50   C51   1.499928 S    
C14   H20   1.108304 S    
O13   Ba2   2.998515 S    
N19   O53   1.299410 A    
C71   H64   1.100895 S    
C19   H26   1.075046 S    
C15   O24   1.408897 S    
N10   O36   1.301208 A    
C33   C34   1.391580 A    
C7    H13   1.103849 S    
C47   H35   1.085728 S    
C11   C12   1.567664 S    
P8    O24   1.764585 S    
C4    H7    1.110244 S    
C53   C59   1.498053 S    
C40   C41   1.395491 A    
O3    Ba1   2.807470 S    
N14   O44   1.299514 A    
P1    C46   1.905334 S    
C13   C14   1.577778 S    
C9    H16   1.112532 S    
C63   H45   1.100102 S    
C24   C27   1.446784 A    
C49   H32   1.086345 S    
C9    N6    1.461505 S    
C5    H10   1.107247 S    
C72   H62   1.105373 S    
C36   C37   1.418402 A    
C20   C69   1.535927 S    
P3    O9    1.540883 D    
C9    N7    1.464199 S    
P4    O15   1.749496 S    
N8    O31   1.299686 A    
O14   P8    1.718331 S    
C72   H63   1.102889 S    
N13   O41   1.298320 A    
N5    O25   1.291162 A    
P4    Ba2   3.481681 S    
C22   C26   1.430103 A    
C68   H51   1.111223 S    
C13   C65   1.522877 S    
C14   H21   1.107291 S    
C55   C56   1.410067 A    
N9    O33   1.300079 A    
