data_mof_unit_pretest_580.cif
_audit_creation_date              2012-12-10T17:50:14-0500
_audit_creation_method            fapswitch 2.2
_symmetry_space_group_name_H-M    P1
_symmetry_Int_Tables_number       1
_space_group_crystal_system       triclinic
_cell_length_a                    10.628852
_cell_length_b                    14.761885
_cell_length_c                    14.735266
_cell_angle_alpha                 64.980184
_cell_angle_beta                  103.680404
_cell_angle_gamma                 103.160266
_cell_volume                      2014.09387721

loop_
_atom_site_label
_atom_site_type_symbol
_atom_type_description
_atom_site_fract_x
_atom_site_fract_y
_atom_site_fract_z
_atom_type_partial_charge
C1    C     C_R   0.479851 0.119565 0.312393 0.823332
C2    C     C_R   0.521362 0.880379 0.687679 0.823542
C3    C     C_R   0.484350 0.290655 0.178103 -0.194687
C4    C     C_R   0.531347 0.709609 0.822277 -0.199599
C5    C     C_R   0.506584 0.361361 0.081101 0.096510
C6    C     C_R   0.535736 0.640379 0.923663 0.094454
C7    C     C_R   0.513817 0.324056 0.008469 0.154633
C8    C     C_R   0.539156 0.678067 0.998366 0.156328
C9    C     C_R   0.521379 0.467573 0.054388 0.069773
C10   C     C_R   0.532329 0.534770 0.952277 0.071266
C11   C     C_R   0.540751 0.494192 0.882616 -0.185111
C12   C     C_R   0.528489 0.508891 0.126803 -0.192407
C13   C     C_R   0.532173 0.390972 0.910608 -0.201223
C14   C     C_R   0.537982 0.612082 0.099094 -0.206595
C15   C     C_R   0.722764 0.290318 0.663718 -0.322912
C16   C     C_R   0.277304 0.709847 0.336128 -0.320721
C17   C     C_R   0.689937 0.208118 0.635390 0.213751
C18   C     C_R   0.311357 0.792671 0.363504 0.214346
C19   C     C_R   0.515155 0.283474 0.511350 0.001783
C20   C     C_R   0.483259 0.715688 0.489919 0.004542
C21   C     C_R   0.546957 0.370859 0.535857 -0.012445
C22   C     C_R   0.450858 0.628051 0.465817 -0.012590
C23   C     C_R   0.259721 0.000048 0.500260 0.874977
C24   C     C_R   0.740255 0.000064 0.499579 0.868793
C25   C     C_R   0.652132 0.371240 0.614992 0.135395
C26   C     C_R   0.346163 0.627957 0.386283 0.134118
C27   C     C_R   0.479282 0.457269 0.485518 0.076793
C28   C     C_R   0.517863 0.541305 0.516652 0.085971
C29   C     C_R   0.621704 0.535598 0.597636 -0.225644
C30   C     C_R   0.375118 0.462820 0.404773 -0.219167
C31   C     C_R   0.687515 0.452451 0.645264 -0.164282
C32   C     C_R   0.309895 0.546288 0.356701 -0.157588
C33   C     C_3   0.033021 0.910799 0.562978 0.429676
C34   C     C_3   0.966930 0.089538 0.436683 0.502325
C35   C     C_3   0.925915 0.927813 0.469003 -0.255382
C36   C     C_3   0.074056 0.072514 0.530648 -0.208015
C37   C     C_3   0.876709 0.999874 0.499292 -0.168573
C38   C     C_3   0.123249 0.000427 0.500370 -0.155540
C39   C     C_3   0.982159 0.981293 0.594291 -0.249193
C40   C     C_3   0.017810 0.019037 0.405369 -0.223530
C41   C     C_R   0.480347 0.187235 0.205462 -0.024195
C42   C     C_R   0.532122 0.812671 0.795368 -0.026065
C43   C     C_R   0.504075 0.219806 0.034819 -0.176447
C44   C     C_R   0.542159 0.781684 0.971443 -0.180874
C45   C     C_R   0.489171 0.151811 0.133188 -0.127859
C46   C     C_R   0.538273 0.848563 0.870501 -0.134045
Cu1   Cu    Cu3+1 0.465750 0.918270 0.475680 1.003743
Cu2   Cu    Cu3+1 0.534250 0.081730 0.524320 1.008439
H1    H     H_    0.863986 0.867870 0.444883 0.188273
H2    H     H_    0.135994 0.132456 0.554768 0.197021
H3    H     H_    0.563110 0.722699 0.548097 0.120526
H4    H     H_    0.434694 0.276093 0.453715 0.134495
H5    H     H_    0.804825 0.291402 0.723492 0.154060
H6    H     H_    0.196106 0.709284 0.275617 0.151941
H7    H     H_    0.654977 0.594456 0.626334 0.126880
H8    H     H_    0.341306 0.403691 0.376455 0.153288
H9    H     H_    0.965196 0.964278 0.671743 0.195838
H10   H     H_    0.034686 0.036122 0.327880 0.195843
H11   H     H_    0.539735 0.363338 0.854888 0.152417
H12   H     H_    0.542467 0.640288 0.157015 0.152966
H13   H     H_    0.523173 0.684976 0.761868 0.148296
H14   H     H_    0.469619 0.313758 0.234495 0.141402
H15   H     H_    0.536673 0.927715 0.851100 0.194021
H16   H     H_    0.487807 0.072113 0.153203 0.188919
H17   H     H_    0.510857 0.191051 0.979813 0.144791
H18   H     H_    0.545041 0.810740 0.028378 0.145702
H19   H     H_    0.557556 0.540108 0.806016 0.141624
H20   H     H_    0.529981 0.463932 0.206585 0.150607
H21   H     H_    0.767535 0.451825 0.706747 0.166511
H22   H     H_    0.229897 0.546947 0.295195 0.157342
N1    N     N_R   0.585750 0.204560 0.560800 -0.219412
N2    N     N_R   0.414250 0.795440 0.439200 -0.218361
O1    O     O_R   0.454850 0.022100 0.338110 -0.583224
O2    O     O_R   0.545150 0.977900 0.661890 -0.581791
O3    O     O_R   0.512700 0.160150 0.379180 -0.578798
O4    O     O_R   0.487300 0.839850 0.620820 -0.581371
O5    O     O_R   0.287930 0.931000 0.479440 -0.530149
O6    O     O_R   0.712070 0.069000 0.520560 -0.530692
O7    O     O_R   0.345780 0.069050 0.520520 -0.606984
O8    O     O_R   0.654220 0.930950 0.479480 -0.612900
C47   C     C_2   0.231201 0.874537 0.308641 0.876073
O9    O     O_2   0.130696 0.869929 0.337989 -0.585796
O10   O     O_R   0.262114 0.950864 0.217194 -0.784820
H23   H     H_    0.197844 0.001417 0.185088 0.326305
C48   C     C_2   0.773831 0.128463 0.687135 0.877410
O11   O     O_2   0.874263 0.137164 0.655596 -0.579545
O12   O     O_R   0.746566 0.049562 0.778138 -0.788733
H24   H     H_    0.813256 0.000952 0.807909 0.325556
S1    S     S_3+6 0.077516 0.790326 0.648295 0.030139
O13   O     O_2   0.115096 0.739721 0.591027 -0.246966
O14   O     O_2   0.191662 0.803913 0.726269 -0.276023
O15   O     O_3   0.950345 0.717956 0.706802 -0.511438
H25   H     H_    0.876934 0.717275 0.651190 0.322526
S2    S     S_3+6 0.922684 0.210029 0.351369 0.006408
O16   O     O_2   0.811992 0.197187 0.270796 -0.311966
O17   O     O_2   0.880865 0.258590 0.408658 -0.255719
O18   O     O_3   0.052888 0.283061 0.297385 -0.557485
H26   H     H_    0.024147 0.349865 0.255157 0.375191

loop_
_geom_bond_atom_site_label_1
_geom_bond_atom_site_label_2
_ccdc_geom_bond_type
C25   C31   A    
C38   C40   S    
O12   H24   S    
C26   C32   A    
C34   C37   S    
C19   N1    A    
O18   H26   S    
C2    O4    A    
C48   O11   D    
C12   H20   S    
C33   C39   S    
C34   C40   S    
C15   H5    S    
Cu2   O7    S    
C28   C29   A    
C19   C21   A    
Cu1   O4    S    
C20   H3    S    
C15   C25   A    
C39   H9    S    
C18   C47   S    
C42   C46   A    
Cu2   O6    S    
C44   H18   S    
C19   H4    S    
C24   O8    A    
O10   H23   S    
C44   C46   A    
C35   H1    S    
C7    C43   A    
S1    O14   D    
C9    C10   A    
C2    O2    A    
C21   C27   A    
C22   C28   A    
C27   C30   A    
C18   N2    A    
Cu2   O3    S    
Cu1   O8    S    
C47   O10   S    
C11   H19   S    
C47   O9    D    
C34   S2    S    
C48   O12   S    
C16   C26   A    
C37   C39   S    
C40   H10   S    
C1    O3    A    
Cu2   O2    S    
Cu1   O1    S    
C4    C6    A    
C5    C7    A    
C32   H22   S    
C29   H7    S    
S2    O18   S    
C30   H8    S    
C4    H13   S    
C5    C9    A    
C33   S1    S    
Cu1   Cu2   S    
C7    C13   A    
C43   H17   S    
C24   C37   S    
C23   O5    A    
S1    O15   S    
S2    O17   D    
C43   C45   A    
C1    C41   S    
C12   C14   A    
C17   N1    A    
C17   C48   S    
Cu1   O5    S    
Cu2   N1    S    
C36   H2    S    
C3    H14   S    
C24   O6    A    
C15   C17   A    
C21   C25   A    
C3    C41   A    
C8    C14   A    
C35   C37   S    
C36   C39   S    
C8    C44   A    
C20   C22   A    
C3    C5    A    
C6    C10   A    
C6    C8    A    
C13   H11   S    
C23   C38   S    
C14   H12   S    
C45   H16   S    
C33   C38   S    
C46   H15   S    
C1    O1    A    
C36   C38   S    
C35   C40   S    
C29   C31   A    
C30   C32   A    
C11   C13   A    
C4    C42   A    
C2    C42   S    
O15   H25   S    
C33   C35   S    
C34   C36   S    
S2    O16   D    
C9    C12   A    
C16   H6    S    
Cu1   N2    S    
C10   C11   A    
C31   H21   S    
C16   C18   A    
C22   C26   A    
C27   C28   A    
C41   C45   A    
C20   N2    A    
C23   O7    A    
S1    O13   D    
