data_mof_unit_pretest_535.cif
_audit_creation_date              2012-12-10T20:51:26-0500
_audit_creation_method            fapswitch 2.2
_symmetry_space_group_name_H-M    P1
_symmetry_Int_Tables_number       1
_space_group_crystal_system       monoclinic
_cell_length_a                    17.283506
_cell_length_b                    8.947615
_cell_length_c                    8.073226
_cell_angle_alpha                 90.0
_cell_angle_beta                  90.261014
_cell_angle_gamma                 90.0
_cell_volume                      1248.48042482

loop_
_atom_site_label
_atom_site_type_symbol
_atom_type_description
_atom_site_fract_x
_atom_site_fract_y
_atom_site_fract_z
_atom_type_partial_charge
C1    C     C_R   0.500000 0.217805 0.500000 0.937841
C2    C     C_R   0.842636 0.647629 0.358800 -0.298361
C3    C     C_R   0.774716 0.533502 0.649219 0.413088
C4    C     C_R   0.225284 0.533502 0.350781 0.413088
C5    C     C_R   0.234863 0.604180 0.644499 0.404031
C6    C     C_R   0.765136 0.604180 0.355501 0.404031
C7    C     C_R   0.731073 0.543844 0.500546 -0.236632
C8    C     C_R   0.268927 0.543844 0.499454 -0.236631
C9    C     C_R   0.884529 0.640351 0.505655 0.046851
C10   C     C_R   0.115471 0.640351 0.494345 0.046851
C11   C     C_1   0.965584 0.661658 0.501788 -0.022228
C12   C     C_R   0.500000 0.782175 0.500000 0.925670
C13   C     C_1   0.034416 0.661658 0.498212 -0.022228
C14   C     C_3   0.788289 0.391444 0.891046 0.097956
C15   C     C_3   0.738334 0.288031 0.996444 -0.265960
C16   C     C_3   0.787295 0.196294 0.116956 -1.000836
C17   C     C_3   0.211711 0.391444 0.108954 0.097957
C18   C     C_3   0.261665 0.288031 0.003556 -0.265961
C19   C     C_3   0.212704 0.196295 0.883043 -1.000835
C20   C     C_3   0.283673 0.757383 0.849286 0.088036
C21   C     C_3   0.353714 0.765359 0.965409 -0.268885
C22   C     C_3   0.362094 0.918770 0.045142 -0.987822
C23   C     C_1   0.500000 0.065087 0.500000 -0.209315
C24   C     C_3   0.716327 0.757383 0.150715 0.088036
C25   C     C_3   0.646286 0.765359 0.034591 -0.268885
C26   C     C_3   0.637905 0.918770 0.954859 -0.987823
C27   C     C_1   0.500000 0.934839 0.500000 -0.216918
C28   C     C_R   0.351985 0.506334 0.499797 0.926286
C29   C     C_R   0.648015 0.506334 0.500203 0.926286
C30   C     C_R   0.851130 0.586876 0.650419 -0.300025
C31   C     C_R   0.148870 0.586876 0.349581 -0.300025
C32   C     C_R   0.157364 0.647629 0.641200 -0.298362
H1    H     H_    0.885713 0.583420 0.762539 0.133403
H2    H     H_    0.749119 0.123791 0.192542 0.261639
H3    H     H_    0.820029 0.271300 0.201660 0.276033
H4    H     H_    0.177058 0.464399 0.025308 0.164440
H5    H     H_    0.172440 0.320741 0.185420 0.117534
H6    H     H_    0.304352 0.354667 0.932457 0.273535
H7    H     H_    0.294305 0.211897 0.086807 0.212368
H8    H     H_    0.171538 0.124313 0.951921 0.259185
H9    H     H_    0.250880 0.123791 0.807458 0.261638
H10   H     H_    0.179971 0.271301 0.798340 0.276033
H11   H     H_    0.230892 0.789791 0.918961 0.145329
H12   H     H_    0.114287 0.583420 0.237461 0.133402
H13   H     H_    0.293101 0.837952 0.745639 0.119925
H14   H     H_    0.348114 0.680142 0.064513 0.270865
H15   H     H_    0.406874 0.740881 0.894025 0.238007
H16   H     H_    0.370012 0.005587 0.948387 0.270861
H17   H     H_    0.413595 0.919576 0.127912 0.283045
H18   H     H_    0.310089 0.944614 0.120172 0.266014
H19   H     H_    0.769108 0.789792 0.081041 0.145329
H20   H     H_    0.706898 0.837952 0.254362 0.119925
H21   H     H_    0.651887 0.680143 0.935487 0.270865
H22   H     H_    0.593126 0.740881 0.105974 0.238007
H23   H     H_    0.129332 0.683386 0.754313 0.143909
H24   H     H_    0.629987 0.005587 0.051614 0.270861
H25   H     H_    0.586404 0.919576 0.872088 0.283045
H26   H     H_    0.689911 0.944615 0.879830 0.266014
H27   H     H_    0.870667 0.683386 0.245687 0.143910
H28   H     H_    0.822942 0.464399 0.974691 0.164440
H29   H     H_    0.827559 0.320740 0.814580 0.117534
H30   H     H_    0.695648 0.354668 0.067544 0.273535
H31   H     H_    0.705694 0.211897 0.913193 0.212369
H32   H     H_    0.828461 0.124312 0.048078 0.259185
N1    N     N_1   0.500000 0.500000 0.073640 -0.053504
N2    N     N_1   0.500000 0.500000 0.926360 -0.053504
O1    O     O_R   0.500000 0.285350 0.636850 -0.616258
O2    O     O_3   0.261002 0.480797 0.207890 -0.630984
O3    O     O_3   0.276026 0.608745 0.792172 -0.629255
O4    O     O_3   0.723974 0.608745 0.207828 -0.629255
O5    O     O_R   0.500000 0.714650 0.363150 -0.637431
O6    O     O_R   0.500000 0.714650 0.636850 -0.637431
O7    O     O_R   0.500000 0.285350 0.363150 -0.616258
O8    O     O_R   0.389120 0.500000 0.636930 -0.584449
O9    O     O_R   0.610880 0.500000 0.363070 -0.584449
O10   O     O_R   0.610880 0.500000 0.636930 -0.575508
O11   O     O_R   0.389120 0.500000 0.363070 -0.575509
O12   O     O_3   0.738997 0.480797 0.792110 -0.630984
Zn1   Zn    Zn3+2 0.500000 0.500000 0.682780 0.977162
Zn2   Zn    Zn3+2 0.500000 0.500000 0.317220 0.977162

loop_
_geom_bond_atom_site_label_1
_geom_bond_atom_site_label_2
_ccdc_geom_bond_type
C24   H20   S    
C22   H16   S    
C7    C29   S    
C11   C13   T    
O10   Zn1   S    
C4    C8    A    
C28   O8    A    
C24   O4    S    
C29   O10   A    
N2    Zn1   S    
C25   H21   S    
O6    Zn1   S    
C3    C7    A    
C16   H3    S    
C15   C16   S    
C18   C19   S    
C5    O3    S    
C16   H2    S    
C10   C31   A    
O7    Zn2   S    
C17   H4    S    
C23   C27   T    
O9    Zn2   S    
C32   H23   S    
C20   H13   S    
C19   H10   S    
C22   H18   S    
C5    C32   A    
C24   H19   S    
C12   O6    A    
N1    Zn2   S    
C21   C22   S    
C2    C6    A    
O5    Zn2   S    
C31   H12   S    
C12   C27   S    
O1    Zn1   S    
C25   H22   S    
C4    O2    S    
C2    H27   S    
C25   C26   S    
C14   H29   S    
C3    C30   A    
C18   H7    S    
C9    C11   S    
C17   C18   S    
C17   H5    S    
C24   C25   S    
C28   O11   A    
C26   H26   S    
C9    C30   A    
C22   H17   S    
C12   O5    A    
C1    C23   S    
O8    Zn1   S    
C8    C28   S    
C20   O3    S    
C20   H11   S    
C21   H14   S    
O11   Zn2   S    
C6    O4    S    
C17   O2    S    
C30   H1    S    
C10   C13   S    
C26   H24   S    
C5    C8    A    
C6    C7    A    
C29   O9    A    
C14   H28   S    
C1    O7    A    
C18   H6    S    
C3    O12   S    
C1    O1    A    
C15   H30   S    
C14   O12   S    
C26   H25   S    
C4    C31   A    
C19   H8    S    
C10   C32   A    
C20   C21   S    
N1    N2    T    
C15   H31   S    
C14   C15   S    
C16   H32   S    
C2    C9    A    
C19   H9    S    
C21   H15   S    
