data_mof_unit_pretest_1456.cif
_audit_creation_date              2012-12-11T14:10:43-0500
_audit_creation_method            fapswitch 2.2
_symmetry_space_group_name_H-M    P1
_symmetry_Int_Tables_number       1
_space_group_crystal_system       triclinic
_cell_length_a                    20.064733
_cell_length_b                    17.598513
_cell_length_c                    15.280091
_cell_angle_alpha                 90.000082
_cell_angle_beta                  53.746145
_cell_angle_gamma                 90.00021
_cell_volume                      4350.99328134

loop_
_atom_site_label
_atom_site_type_symbol
_atom_type_description
_atom_site_fract_x
_atom_site_fract_y
_atom_site_fract_z
_atom_type_partial_charge
C1    C     C_R   0.377862 0.195508 0.990933 -0.202993
C2    C     C_R   0.652050 0.819429 0.964549 -0.182060
C3    C     C_R   0.622020 0.195593 0.009128 -0.192771
C4    C     C_R   0.348119 0.819296 0.035107 -0.183419
C5    C     C_R   0.877977 0.695592 0.990876 -0.192775
C6    C     C_R   0.151891 0.319302 0.964879 -0.183347
C7    C     C_R   0.122136 0.695509 0.009072 -0.202968
C8    C     C_R   0.847939 0.319438 0.035474 -0.182181
C9    C     C_3   0.230766 0.239590 0.577496 -0.422504
C10   C     C_3   0.678016 0.718720 0.452558 -0.427587
C11   C     C_3   0.770607 0.237836 0.420615 -0.419063
C12   C     C_3   0.322750 0.717413 0.546477 -0.429079
C13   C     C_3   0.729374 0.737830 0.579401 -0.419010
C14   C     C_3   0.177263 0.217436 0.453504 -0.428968
C15   C     C_3   0.269233 0.739607 0.422508 -0.422501
C16   C     C_3   0.822003 0.218696 0.547412 -0.427802
C17   C     C_2   0.198351 0.742309 0.080327 0.133993
C18   C     C_2   0.744137 0.293758 0.000725 0.102975
C19   C     C_2   0.801972 0.742504 0.919260 0.134705
C20   C     C_2   0.256029 0.293964 0.999318 0.101806
C21   C     C_2   0.698013 0.242510 0.080762 0.134694
C22   C     C_2   0.243994 0.793945 0.000651 0.101861
C23   C     C_2   0.301668 0.242320 0.919652 0.133958
C24   C     C_2   0.755846 0.793747 0.999304 0.103003
C25   C     C_R   0.404293 0.801290 0.206221 0.122975
C26   C     C_R   0.635852 0.182924 0.776156 0.142745
C27   C     C_R   0.595168 0.801177 0.794167 0.124103
C28   C     C_R   0.363923 0.182730 0.223660 0.148412
C29   C     C_R   0.904824 0.301179 0.205838 0.124035
C30   C     C_R   0.136077 0.682731 0.776337 0.148385
C31   C     C_R   0.095713 0.301291 0.793774 0.123000
C32   C     C_R   0.864159 0.682933 0.223839 0.142751
C33   C     C_R   0.333412 0.909644 0.946896 0.568576
C34   C     C_R   0.636172 0.111194 0.100910 0.599703
C35   C     C_R   0.666640 0.909649 0.053020 0.567392
C36   C     C_R   0.363747 0.111092 0.899160 0.601422
C37   C     C_R   0.833353 0.409654 0.946995 0.567409
C38   C     C_R   0.136250 0.611091 0.100843 0.601395
C39   C     C_R   0.166596 0.409650 0.053089 0.568578
C40   C     C_R   0.863824 0.611194 0.899095 0.599695
C41   C     C_R   0.370440 0.090891 0.319556 0.546027
C42   C     C_R   0.584212 0.889263 0.700714 0.683826
C43   C     C_R   0.629476 0.090935 0.680413 0.541977
C44   C     C_R   0.415497 0.889388 0.299522 0.685240
C45   C     C_R   0.870532 0.590946 0.319586 0.541968
C46   C     C_R   0.084505 0.389388 0.700477 0.685211
C47   C     C_R   0.129559 0.590893 0.680443 0.546041
C48   C     C_R   0.915770 0.389269 0.299299 0.683828
C49   C     C_R   0.344359 0.184158 0.936475 -0.092250
C50   C     C_R   0.701306 0.843525 0.994117 -0.096395
C51   C     C_R   0.655315 0.184341 0.063896 -0.089753
C52   C     C_R   0.298836 0.843453 0.005569 -0.096457
C53   C     C_R   0.844678 0.684339 0.936114 -0.089746
C54   C     C_R   0.201180 0.343465 0.994404 -0.096323
C55   C     C_R   0.155640 0.684156 0.063526 -0.092276
C56   C     C_R   0.798680 0.343535 0.005911 -0.096312
C57   C     C_R   0.400724 0.813181 0.297702 -0.184068
C58   C     C_R   0.672079 0.155753 0.672252 -0.159206
C59   C     C_R   0.598524 0.812916 0.702818 -0.182809
C60   C     C_R   0.327701 0.155573 0.327602 -0.165888
C61   C     C_R   0.901452 0.312924 0.297196 -0.182854
C62   C     C_R   0.172299 0.655574 0.672395 -0.165901
C63   C     C_R   0.099281 0.313181 0.702294 -0.184033
C64   C     C_R   0.827937 0.655772 0.327743 -0.159198
C65   C     C_3   0.217789 0.161425 0.543169 -0.243597
C66   C     C_3   0.690143 0.796646 0.489834 -0.285353
C67   C     C_3   0.783613 0.160468 0.456791 -0.249637
C68   C     C_3   0.310759 0.796179 0.510911 -0.287812
C69   C     C_3   0.716383 0.660469 0.543190 -0.249651
C70   C     C_3   0.189262 0.296191 0.489084 -0.287799
C71   C     C_3   0.282202 0.661432 0.456819 -0.243594
C72   C     C_3   0.809857 0.296630 0.510174 -0.285360
C73   C     C_3   0.634406 0.688873 0.569358 0.759016
C74   C     C_3   0.272023 0.269426 0.462174 0.745746
C75   C     C_3   0.364894 0.688526 0.429475 0.759314
C76   C     C_3   0.727904 0.268654 0.535679 0.750339
C77   C     C_3   0.135106 0.188538 0.570502 0.759314
C78   C     C_3   0.772093 0.768668 0.464343 0.750327
C79   C     C_3   0.865596 0.188870 0.430602 0.759108
C80   C     C_3   0.227990 0.769433 0.537831 0.745732
C81   C     C_3   0.646365 0.765202 0.606156 0.019822
C82   C     C_3   0.260602 0.192286 0.427083 0.024709
C83   C     C_3   0.353038 0.765614 0.394404 0.021752
C84   C     C_3   0.739331 0.192348 0.572677 0.028222
C85   C     C_3   0.146969 0.265615 0.605589 0.021675
C86   C     C_3   0.760681 0.692369 0.427312 0.028185
C87   C     C_3   0.853619 0.265206 0.393847 0.019926
C88   C     C_3   0.239402 0.692283 0.572909 0.024754
H1    H     H_    0.390725 0.250019 0.009243 0.175580
H2    H     H_    0.654083 0.765807 0.929121 0.145908
H3    H     H_    0.609713 0.249985 0.989779 0.168934
H4    H     H_    0.346291 0.765596 0.070242 0.147455
H5    H     H_    0.890282 0.749986 0.010228 0.168934
H6    H     H_    0.153730 0.265604 0.929730 0.147391
H7    H     H_    0.109279 0.750020 0.990757 0.175609
H8    H     H_    0.845902 0.265819 0.070914 0.145966
H9    H     H_    0.217184 0.104601 0.574057 0.186454
H10   H     H_    0.681694 0.852955 0.464956 0.199216
H11   H     H_    0.784603 0.103102 0.426902 0.186902
H12   H     H_    0.320256 0.851964 0.535865 0.199417
H13   H     H_    0.715389 0.603096 0.573064 0.186925
H14   H     H_    0.179777 0.351983 0.464134 0.199434
H15   H     H_    0.282798 0.604615 0.425922 0.186442
H16   H     H_    0.818307 0.352934 0.535063 0.199226
H17   H     H_    0.253653 0.247511 0.627621 0.152262
H18   H     H_    0.656907 0.709985 0.400621 0.159950
H19   H     H_    0.748135 0.244631 0.369845 0.152708
H20   H     H_    0.344392 0.707523 0.597604 0.161384
H21   H     H_    0.751839 0.744611 0.630183 0.152693
H22   H     H_    0.155620 0.207560 0.402374 0.161387
H23   H     H_    0.246342 0.747543 0.372390 0.152271
H24   H     H_    0.843118 0.209951 0.599339 0.159951
N1    N     N_R   0.408680 0.130810 0.995780 -0.071822
N2    N     N_R   0.591320 0.869190 0.004220 -0.068735
N3    N     N_R   0.591320 0.130810 0.004220 -0.072641
N4    N     N_R   0.408680 0.869190 0.995780 -0.068711
N5    N     N_R   0.908680 0.630810 0.995780 -0.072643
N6    N     N_R   0.091320 0.369190 0.004220 -0.068694
N7    N     N_R   0.091320 0.630810 0.004220 -0.071822
N8    N     N_R   0.908680 0.369190 0.995780 -0.068740
N9    N     N_R   0.421410 0.867210 0.153620 -0.090654
N10   N     N_R   0.578590 0.132790 0.846380 -0.088844
N11   N     N_R   0.578590 0.867210 0.846380 -0.091032
N12   N     N_R   0.421410 0.132790 0.153620 -0.085155
N13   N     N_R   0.921410 0.367210 0.153620 -0.091001
N14   N     N_R   0.078590 0.632790 0.846380 -0.085160
N15   N     N_R   0.078590 0.367210 0.846380 -0.090660
N16   N     N_R   0.921410 0.632790 0.153620 -0.088844
N17   N     N_R   0.403840 0.921910 0.935760 -0.111739
N18   N     N_R   0.596160 0.078090 0.064240 -0.113664
N19   N     N_R   0.596160 0.921910 0.064240 -0.111236
N20   N     N_R   0.403840 0.078090 0.935760 -0.113636
N21   N     N_R   0.903840 0.421910 0.935760 -0.111243
N22   N     N_R   0.096160 0.578090 0.064240 -0.113637
N23   N     N_R   0.096160 0.421910 0.064240 -0.111761
N24   N     N_R   0.903840 0.578090 0.935760 -0.113663
N25   N     N_R   0.426250 0.076100 0.213650 -0.129389
N26   N     N_R   0.573750 0.923900 0.786350 -0.117721
N27   N     N_R   0.573750 0.076100 0.786350 -0.129566
N28   N     N_R   0.426250 0.923900 0.213650 -0.118531
N29   N     N_R   0.926250 0.576100 0.213650 -0.129564
N30   N     N_R   0.073750 0.423900 0.786350 -0.118535
N31   N     N_R   0.073750 0.576100 0.786350 -0.129388
N32   N     N_R   0.926250 0.423900 0.213650 -0.117730
Ni1   Ni    Ni4+2 0.500000 0.131570 0.000000 0.169233
Ni2   Ni    Ni4+2 0.500000 0.868430 0.000000 0.199261
Ni3   Ni    Ni4+2 0.000000 0.631570 0.000000 0.169233
Ni4   Ni    Ni4+2 0.000000 0.368430 0.000000 0.199245
Ni5   Ni    Ni4+2 0.488900 0.000000 0.862310 0.231925
Ni6   Ni    Ni4+2 0.511100 0.000000 0.137690 0.232494
Ni7   Ni    Ni4+2 0.988900 0.500000 0.862310 0.232485
Ni8   Ni    Ni4+2 0.011100 0.500000 0.137690 0.231906
N33   N     N_2   0.420287 0.729632 0.154523 -0.100762
H25   H     H_    0.368765 0.695392 0.190118 0.158998
C89   C     C_3   0.493248 0.689673 0.128437 -0.866295
H26   H     H_    0.530701 0.670814 0.042878 0.240913
H27   H     H_    0.475034 0.638403 0.180104 0.275366
H28   H     H_    0.533194 0.726186 0.138907 0.244381
N34   N     N_2   0.649516 0.255503 0.803627 -0.102863
H29   H     H_    0.707612 0.277812 0.748917 0.196235
C90   C     C_3   0.584421 0.311069 0.842538 -0.902570
H30   H     H_    0.602493 0.353518 0.778536 0.295057
H31   H     H_    0.575139 0.342653 0.911698 0.230000
H32   H     H_    0.525435 0.284344 0.867993 0.247865
N35   N     N_2   0.578934 0.729643 0.846263 -0.101142
H33   H     H_    0.630597 0.695791 0.812272 0.157811
C91   C     C_3   0.506981 0.688907 0.870326 -0.872162
H34   H     H_    0.470443 0.667299 0.954579 0.241257
H35   H     H_    0.526485 0.639403 0.815345 0.275999
H36   H     H_    0.465777 0.725808 0.862738 0.245147
N36   N     N_2   0.352369 0.256123 0.196048 -0.100632
H37   H     H_    0.300282 0.284448 0.257181 0.206197
C92   C     C_3   0.425300 0.303371 0.139344 -0.916853
H38   H     H_    0.445934 0.315434 0.191084 0.284745
H39   H     H_    0.411735 0.357851 0.116161 0.244233
H40   H     H_    0.475492 0.274296 0.064812 0.248405
N37   N     N_2   0.921100 0.229644 0.153731 -0.101139
H41   H     H_    0.869460 0.195759 0.187739 0.157806
C93   C     C_3   0.993098 0.188966 0.129624 -0.871531
H42   H     H_    0.029797 0.167611 0.045229 0.241193
H43   H     H_    0.973642 0.139298 0.184338 0.275801
H44   H     H_    0.034148 0.225836 0.137566 0.245073
N38   N     N_2   0.147636 0.756121 0.803951 -0.100619
H45   H     H_    0.199722 0.784446 0.742817 0.206212
C94   C     C_3   0.074705 0.803371 0.860668 -0.916782
H46   H     H_    0.054081 0.815461 0.808922 0.284736
H47   H     H_    0.088268 0.857839 0.883885 0.244214
H48   H     H_    0.024507 0.774281 0.935185 0.248404
N39   N     N_2   0.079740 0.229630 0.845458 -0.100810
H49   H     H_    0.131264 0.195394 0.809845 0.159015
C95   C     C_3   0.006775 0.189665 0.871571 -0.866799
H50   H     H_    0.969420 0.170676 0.957062 0.241000
H51   H     H_    0.024981 0.138479 0.819769 0.275489
H52   H     H_    0.966744 0.226216 0.861315 0.244425
N40   N     N_2   0.850501 0.755510 0.196358 -0.102866
H53   H     H_    0.792403 0.777817 0.251056 0.196236
C96   C     C_3   0.915591 0.811078 0.157475 -0.902652
H54   H     H_    0.897503 0.853524 0.221484 0.295053
H55   H     H_    0.924892 0.842661 0.088304 0.230029
H56   H     H_    0.974570 0.784354 0.132044 0.247883
O1    O     O_3   0.305838 0.951786 0.898341 -0.604301
C97   C     C_3   0.224711 0.977748 0.979157 -0.190109
H57   H     H_    0.222315 0.010944 0.043041 0.119603
H58   H     H_    0.179175 0.930615 0.016955 0.104253
H59   H     H_    0.205104 0.016135 0.940670 0.186544
O2    O     O_3   0.645085 0.082247 0.176938 -0.612632
C98   C     C_3   0.567102 0.074737 0.275210 -0.216707
H60   H     H_    0.530883 0.031613 0.267393 0.206035
H61   H     H_    0.533923 0.130095 0.302686 0.090465
H62   H     H_    0.575078 0.055177 0.337509 0.154405
O3    O     O_3   0.693891 0.951436 0.102258 -0.604675
C99   C     C_3   0.775343 0.977002 0.022144 -0.186327
H63   H     H_    0.778585 0.010178 0.957629 0.118961
H64   H     H_    0.820629 0.929649 0.985157 0.103151
H65   H     H_    0.794598 0.015312 0.061120 0.187047
O4    O     O_3   0.355444 0.082349 0.822467 -0.612308
C100  C     C_3   0.433691 0.074866 0.724553 -0.213585
H66   H     H_    0.469481 0.031379 0.732560 0.206123
H67   H     H_    0.467146 0.130084 0.697695 0.088414
H68   H     H_    0.426137 0.055852 0.661670 0.153748
O5    O     O_3   0.806098 0.451440 0.897760 -0.604665
C101  C     C_3   0.724647 0.477011 0.977879 -0.186313
H69   H     H_    0.721410 0.510184 0.042394 0.118952
H70   H     H_    0.679356 0.429662 0.014867 0.103137
H71   H     H_    0.705396 0.515325 0.938905 0.187054
O6    O     O_3   0.144547 0.582348 0.177543 -0.612314
C102  C     C_3   0.066295 0.574861 0.275453 -0.213497
H72   H     H_    0.030511 0.531367 0.267442 0.206102
H73   H     H_    0.032832 0.630077 0.302307 0.088405
H74   H     H_    0.073845 0.555855 0.338341 0.153732
O7    O     O_3   0.194180 0.451798 0.101628 -0.604275
C103  C     C_3   0.275291 0.477781 0.020790 -0.190102
H75   H     H_    0.277656 0.510967 0.956920 0.119581
H76   H     H_    0.320846 0.430661 0.982971 0.104242
H77   H     H_    0.294899 0.516186 0.059260 0.186539
O8    O     O_3   0.854906 0.582247 0.823072 -0.612638
C104  C     C_3   0.932885 0.574730 0.724799 -0.216698
H78   H     H_    0.969104 0.531607 0.732618 0.206027
H79   H     H_    0.966066 0.630086 0.697314 0.090476
H80   H     H_    0.924904 0.555164 0.662507 0.154412
O9    O     O_3   0.349150 0.041361 0.402766 -0.580525
C105  C     C_3   0.371789 0.070840 0.468281 -0.193384
H81   H     H_    0.380863 0.133375 0.463341 0.080391
H82   H     H_    0.427369 0.042281 0.450329 0.163759
H83   H     H_    0.323906 0.055342 0.554102 0.159074
O10   O     O_3   0.561754 0.922501 0.639665 -0.612929
C106  C     C_3   0.499076 0.880660 0.645924 -0.364042
H84   H     H_    0.467572 0.918347 0.622799 0.185469
H85   H     H_    0.451229 0.859697 0.729422 0.162076
H86   H     H_    0.526125 0.833404 0.586686 0.156261
O11   O     O_3   0.651031 0.041216 0.597297 -0.580365
C107  C     C_3   0.629168 0.070646 0.530940 -0.193495
H87   H     H_    0.620164 0.133134 0.535722 0.079369
H88   H     H_    0.573624 0.042240 0.548472 0.164076
H89   H     H_    0.677509 0.055143 0.445275 0.158302
O12   O     O_3   0.438619 0.922313 0.360028 -0.613008
C108  C     C_3   0.501487 0.880129 0.352931 -0.362364
H90   H     H_    0.533488 0.917574 0.375557 0.185575
H91   H     H_    0.548912 0.859136 0.269292 0.162529
H92   H     H_    0.474648 0.832743 0.412022 0.155247
O13   O     O_3   0.848973 0.541233 0.402710 -0.580356
C109  C     C_3   0.870833 0.570669 0.469068 -0.193423
H93   H     H_    0.879862 0.633156 0.464257 0.079338
H94   H     H_    0.926364 0.542246 0.451560 0.164073
H95   H     H_    0.822476 0.555190 0.554742 0.158281
O14   O     O_3   0.061389 0.422316 0.639965 -0.612985
C110  C     C_3   0.998523 0.380132 0.647056 -0.362431
H96   H     H_    0.966544 0.417571 0.624395 0.185565
H97   H     H_    0.951085 0.359156 0.730698 0.162548
H98   H     H_    0.025362 0.332734 0.587986 0.155265
O15   O     O_3   0.150844 0.541366 0.597232 -0.580517
C111  C     C_3   0.128196 0.570848 0.531728 -0.193369
H99   H     H_    0.119122 0.633382 0.536673 0.080384
H100  H     H_    0.072615 0.542288 0.549685 0.163748
H101  H     H_    0.176072 0.555350 0.445906 0.159067
O16   O     O_3   0.938208 0.422506 0.360369 -0.612888
C112  C     C_3   0.000895 0.380679 0.354105 -0.364159
H102  H     H_    0.032372 0.418367 0.377270 0.185454
H103  H     H_    0.048759 0.359748 0.270595 0.162097
H104  H     H_    0.973859 0.333405 0.413318 0.156269
O17   O     O_3   0.566426 0.638998 0.622960 -0.616520
C113  C     C_3   0.497557 0.675963 0.641180 -0.308795
H105  H     H_    0.509744 0.697510 0.564819 0.130597
H106  H     H_    0.478778 0.722972 0.699370 0.149923
H107  H     H_    0.445947 0.634679 0.677020 0.200437
O18   O     O_3   0.340041 0.319298 0.403805 -0.607744
C114  C     C_3   0.406840 0.291327 0.400940 -0.288372
H108  H     H_    0.433827 0.240351 0.348264 0.124043
H109  H     H_    0.389888 0.279516 0.483209 0.135755
H110  H     H_    0.455175 0.335936 0.364615 0.195689
O19   O     O_3   0.432340 0.638133 0.373723 -0.616748
C115  C     C_3   0.501527 0.673066 0.357202 -0.305833
H111  H     H_    0.489865 0.690737 0.434721 0.134942
H112  H     H_    0.519953 0.722402 0.302682 0.147529
H113  H     H_    0.553136 0.631620 0.317806 0.200517
O20   O     O_3   0.660013 0.318778 0.590376 -0.615360
C116  C     C_3   0.592528 0.287982 0.597301 -0.277887
H114  H     H_    0.565048 0.239998 0.655631 0.130943
H115  H     H_    0.608840 0.270833 0.516835 0.128886
H116  H     H_    0.544830 0.332931 0.629037 0.196654
O21   O     O_3   0.067656 0.138148 0.626209 -0.616743
C117  C     C_3   0.998452 0.173145 0.642864 -0.306040
H117  H     H_    0.010082 0.190951 0.565408 0.134818
H118  H     H_    0.980043 0.222405 0.697504 0.147689
H119  H     H_    0.946847 0.131695 0.682184 0.200558
O22   O     O_3   0.839977 0.818801 0.409675 -0.615347
C118  C     C_3   0.907456 0.788004 0.402762 -0.277865
H120  H     H_    0.934950 0.740033 0.344411 0.130915
H121  H     H_    0.891132 0.770837 0.483228 0.128863
H122  H     H_    0.955144 0.832961 0.371063 0.196647
O23   O     O_3   0.933587 0.139010 0.376921 -0.616515
C119  C     C_3   0.002429 0.175923 0.358851 -0.308485
H123  H     H_    0.990206 0.197321 0.435296 0.130692
H124  H     H_    0.021204 0.223032 0.300807 0.149718
H125  H     H_    0.054058 0.134647 0.322900 0.200368
O24   O     O_3   0.159980 0.819312 0.596213 -0.607756
C120  C     C_3   0.093175 0.791360 0.599076 -0.288313
H126  H     H_    0.066192 0.740371 0.651726 0.124012
H127  H     H_    0.110122 0.779575 0.516804 0.135749
H128  H     H_    0.044841 0.835970 0.635427 0.195673
N41   N     N_2   0.196100 0.742050 0.175573 -0.115602
H129  H     H_    0.203385 0.690205 0.199940 0.211163
C121  C     C_3   0.132777 0.788683 0.263766 -0.956823
H130  H     H_    0.147204 0.797575 0.322819 0.250716
H131  H     H_    0.072567 0.759323 0.305557 0.237844
H132  H     H_    0.129559 0.845124 0.233762 0.262728
N42   N     N_2   0.752801 0.290636 0.900806 -0.105586
H133  H     H_    0.751458 0.341004 0.867810 0.216295
C122  C     C_3   0.810400 0.235263 0.822105 -1.004919
H134  H     H_    0.856006 0.264247 0.744068 0.236334
H135  H     H_    0.776859 0.193044 0.807699 0.269488
H136  H     H_    0.842538 0.204345 0.850704 0.259044
N43   N     N_2   0.804798 0.742684 0.823574 -0.116056
H137  H     H_    0.798463 0.690881 0.798150 0.211053
C123  C     C_3   0.867852 0.790087 0.736330 -0.959306
H138  H     H_    0.854055 0.798785 0.676598 0.253123
H139  H     H_    0.928441 0.761486 0.695000 0.237993
H140  H     H_    0.869886 0.846569 0.767271 0.262578
N44   N     N_2   0.248476 0.291867 0.098550 -0.103735
H141  H     H_    0.251357 0.342411 0.129913 0.216287
C124  C     C_3   0.191040 0.237250 0.178982 -0.990657
H142  H     H_    0.144836 0.267250 0.255787 0.235601
H143  H     H_    0.224624 0.196669 0.195465 0.269956
H144  H     H_    0.159658 0.204343 0.150875 0.256253
N45   N     N_2   0.695192 0.242682 0.176443 -0.116045
H145  H     H_    0.701537 0.190878 0.201857 0.211053
C125  C     C_3   0.632151 0.290089 0.263695 -0.959301
H146  H     H_    0.646014 0.298851 0.323349 0.253157
H147  H     H_    0.571569 0.261457 0.305120 0.237982
H148  H     H_    0.630054 0.346544 0.232744 0.262557
N46   N     N_2   0.251547 0.791840 0.901417 -0.103760
H149  H     H_    0.248750 0.842385 0.869994 0.216334
C126  C     C_3   0.308933 0.737179 0.821033 -0.990889
H150  H     H_    0.355151 0.767137 0.744201 0.235610
H151  H     H_    0.275319 0.696611 0.804591 0.270025
H152  H     H_    0.340299 0.704267 0.849156 0.256294
N47   N     N_2   0.303932 0.242063 0.824394 -0.115594
H153  H     H_    0.296645 0.190223 0.800015 0.211147
C127  C     C_3   0.367237 0.288718 0.736215 -0.956840
H154  H     H_    0.352696 0.297769 0.677300 0.250796
H155  H     H_    0.427427 0.259293 0.694241 0.237823
H156  H     H_    0.370574 0.345094 0.766269 0.262682
N48   N     N_2   0.747183 0.790621 0.099221 -0.105588
H157  H     H_    0.748497 0.840996 0.132232 0.216301
C128  C     C_3   0.689588 0.735241 0.177913 -1.005008
H158  H     H_    0.643992 0.764215 0.255962 0.236311
H159  H     H_    0.723129 0.693008 0.192298 0.269510
H160  H     H_    0.657437 0.704346 0.149326 0.259076

loop_
_geom_bond_atom_site_label_1
_geom_bond_atom_site_label_2
_ccdc_geom_bond_type
N47   H153  S    
C18   C21   D    
C122  H135  S    
O19   C115  S    
N21   Ni7   S    
C7    C55   A    
C8    C56   A    
C79   C87   S    
N43   H137  S    
N36   C92   S    
N11   N26   A    
C113  H105  S    
N9    N28   A    
C107  H88   S    
N10   N27   A    
C11   C76   S    
C23   C49   S    
C89   H27   S    
C74   O18   S    
N13   N32   A    
O15   C111  S    
C47   N31   A    
N14   N31   A    
C16   C84   S    
C48   N32   A    
N8    N21   A    
N2    N19   A    
C2    H2    S    
C43   C58   A    
C37   C56   A    
C38   C55   A    
C126  H152  S    
C111  H99   S    
C6    H6    S    
C70   C74   S    
C98   H62   S    
C105  H82   S    
C57   C83   S    
C38   O6    S    
C10   C66   S    
C29   N37   S    
C63   C85   S    
C89   H28   S    
C1    N1    A    
C6    C54   A    
C73   C81   S    
C126  H151  S    
C126  H150  S    
C29   C61   A    
C105  H83   S    
C65   C77   S    
C97   H57   S    
C121  H130  S    
C7    N7    A    
N12   N25   A    
C67   C79   S    
C20   C54   S    
C12   H20   S    
O2    C98   S    
C44   O12   S    
O21   C117  S    
C62   C88   S    
O24   C120  S    
N30   Ni7   S    
C120  H128  S    
N38   H45   S    
C102  H72   S    
C44   C57   A    
C103  H76   S    
O22   C118  S    
C21   N45   S    
C92   H39   S    
C27   N35   S    
O20   C116  S    
N8    Ni4   S    
C106  H86   S    
C19   N43   S    
N3    Ni1   S    
C68   C83   S    
N13   Ni4   S    
C109  H94   S    
N14   Ni3   S    
N16   Ni3   S    
C69   H13   S    
C115  H112  S    
C80   O24   S    
C95   H52   S    
C37   O5    S    
C80   C88   S    
C128  H158  S    
C2    N2    A    
C65   C82   S    
C111  H101  S    
N6    Ni4   S    
C38   N22   A    
C9    C65   S    
C123  H138  S    
C43   O11   S    
C99   H63   S    
N41   H129  S    
C12   C75   S    
C89   H26   S    
C108  H91   S    
C25   N9    A    
C101  H69   S    
C107  H87   S    
C29   N13   A    
N46   H149  S    
C31   N15   A    
C47   C62   A    
C91   H35   S    
C33   C52   A    
C12   C68   S    
C34   C51   A    
C79   O23   S    
C36   N20   A    
O13   C109  S    
C110  H98   S    
C94   H47   S    
C39   C54   A    
C9    H17   S    
N23   Ni8   S    
C119  H123  S    
C96   H55   S    
O9    C105  S    
N39   C95   S    
C13   H21   S    
C61   C87   S    
C9    C85   S    
C11   C87   S    
N37   C93   S    
N18   Ni6   S    
C99   H65   S    
C17   N41   S    
C77   C85   S    
N35   C91   S    
C104  H78   S    
C116  H115  S    
C25   C57   A    
C124  H143  S    
N26   Ni5   S    
C24   C50   S    
C117  H118  S    
N7    N22   A    
C12   C88   S    
C31   C63   A    
C32   C64   A    
C128  H160  S    
N42   C122  S    
C101  H71   S    
C100  H66   S    
C71   C88   S    
C41   O9    S    
C121  H131  S    
C68   H12   S    
N17   Ni5   S    
O5    C101  S    
C22   N46   S    
C45   O13   S    
C20   C23   D    
N34   C90   S    
C101  H70   S    
C107  H89   S    
C48   O16   S    
C102  H73   S    
N25   Ni6   S    
C10   H18   S    
N33   C89   S    
C9    C74   S    
C21   C51   S    
C72   C87   S    
C22   C52   S    
C73   O17   S    
C95   H50   S    
C14   H22   S    
C71   H15   S    
O10   C106  S    
C10   C86   S    
C41   C60   A    
C42   C59   A    
C110  H96   S    
C28   N12   A    
C109  H93   S    
C67   H11   S    
C45   C64   A    
C113  H106  S    
C119  H125  S    
C46   C63   A    
C108  H92   S    
C32   N16   A    
C104  H79   S    
N32   Ni8   S    
C36   O4    S    
C125  H148  S    
N4    Ni2   S    
C13   C69   S    
N31   Ni7   S    
C116  H116  S    
C127  H156  S    
C96   H54   S    
C36   C49   A    
C47   O15   S    
O16   C112  S    
C113  H107  S    
C111  H100  S    
O6    C102  S    
C104  H80   S    
C98   H61   S    
N9    Ni2   S    
C70   C85   S    
N29   Ni8   S    
N40   C96   S    
N3    N18   A    
N1    N20   A    
C42   N26   A    
C30   N38   S    
C16   C72   S    
N36   H37   S    
C76   C84   S    
C109  H95   S    
C90   H30   S    
O11   C107  S    
C46   N30   A    
C24   N48   S    
C39   N23   A    
C100  H68   S    
C40   N24   A    
C97   H58   S    
C10   C73   S    
C124  H144  S    
N7    Ni3   S    
C13   C81   S    
C3    H3    S    
C116  H114  S    
C14   C77   S    
N1    Ni1   S    
C18   N42   S    
C120  H127  S    
C90   H31   S    
C13   C78   S    
C42   O10   S    
N24   Ni7   S    
C97   H59   S    
N48   H157  S    
C69   C73   S    
N45   C125  S    
N16   N29   A    
C41   N25   A    
C72   C76   S    
N15   Ni4   S    
C93   H44   S    
N43   C123  S    
N47   C127  S    
C45   N29   A    
N20   Ni5   S    
C14   C70   S    
C74   C82   S    
C32   N40   S    
C64   C86   S    
C106  H85   S    
C66   C78   S    
C25   N33   S    
C98   H60   S    
O8    C104  S    
C20   N44   S    
C91   H34   S    
C3    C51   A    
C15   C83   S    
N40   H53   S    
C72   H16   S    
C124  H142  S    
N27   Ni5   S    
C118  H120  S    
C96   H56   S    
C95   H51   S    
N44   H141  S    
N11   Ni2   S    
C46   O14   S    
N22   Ni8   S    
C105  H81   S    
C114  H110  S    
C26   N34   S    
C26   C58   A    
C66   H10   S    
C99   H64   S    
C30   C62   A    
C14   C82   S    
C35   N19   A    
C125  H146  S    
C90   H32   S    
C16   H24   S    
C123  H139  S    
C33   N17   A    
C4    N4    A    
C59   C81   S    
C123  H140  S    
N46   C126  S    
C76   O20   S    
C15   C71   S    
C31   N39   S    
C17   C22   D    
N5    Ni3   S    
C16   C79   S    
C118  H122  S    
C128  H159  S    
C19   C24   D    
N42   H133  S    
C3    N3    A    
C66   C81   S    
C110  H97   S    
C75   C83   S    
C94   H46   S    
C103  H75   S    
C119  H124  S    
N39   H49   S    
C93   H42   S    
N37   H41   S    
N19   Ni6   S    
C26   N10   A    
N5    N24   A    
N6    N23   A    
C4    H4    S    
C68   C80   S    
O23   C119  S    
C30   N14   A    
N35   H33   S    
C122  H134  S    
C8    H8    S    
C40   O8    S    
C92   H38   S    
C34   O2    S    
C117  H119  S    
C4    C52   A    
C5    C53   A    
C115  H111  S    
C108  H90   S    
N38   C94   S    
O18   C114  S    
N10   Ni1   S    
C35   O3    S    
C60   C82   S    
N4    N17   A    
N34   H29   S    
N41   C121  S    
C43   N27   A    
C70   H14   S    
C2    C50   A    
C17   C55   S    
C18   C56   S    
C78   C86   S    
C114  H109  S    
C67   C84   S    
N48   C128  S    
C23   N47   S    
C11   C67   S    
C91   H36   S    
C15   H23   S    
O4    C100  S    
N2    Ni2   S    
C75   O19   S    
C27   N11   A    
C94   H48   S    
C77   O21   S    
O17   C113  S    
C78   O22   S    
C103  H77   S    
C5    N5    A    
C118  H121  S    
N15   N30   A    
O3    C99   S    
C39   O7    S    
C58   C84   S    
C125  H147  S    
C28   N36   S    
C15   C80   S    
O12   C108  S    
C35   C50   A    
C127  H155  S    
C28   C60   A    
N44   C124  S    
C112  H103  S    
C114  H108  S    
C11   H19   S    
C122  H136  S    
C37   N21   A    
C112  H104  S    
N28   Ni6   S    
C8    N8    A    
C92   H40   S    
C117  H117  S    
C1    H1    S    
C115  H113  S    
C5    H5    S    
C106  H84   S    
C100  H67   S    
C7    H7    S    
N12   Ni1   S    
C121  H132  S    
C127  H154  S    
N33   H25   S    
C65   H9    S    
C27   C59   A    
C71   C75   S    
C19   C53   S    
C48   C61   A    
C33   O1    S    
C44   N28   A    
C120  H126  S    
O14   C110  S    
C102  H74   S    
O1    C97   S    
C34   N18   A    
C40   C53   A    
O7    C103  S    
N45   H145  S    
C112  H102  S    
C1    C49   A    
C6    N6    A    
C69   C86   S    
C93   H43   S    
