data_mof_unit_pretest_1278.cif
_audit_creation_date              2012-12-11T15:15:25-0500
_audit_creation_method            fapswitch 2.2
_symmetry_space_group_name_H-M    P1
_symmetry_Int_Tables_number       1
_space_group_crystal_system       triclinic
_cell_length_a                    18.83407
_cell_length_b                    18.833667
_cell_length_c                    20.367738
_cell_angle_alpha                 107.222278
_cell_angle_beta                  106.441311
_cell_angle_gamma                 110.959619
_cell_volume                      5799.26348123

loop_
_atom_site_label
_atom_site_type_symbol
_atom_type_description
_atom_site_fract_x
_atom_site_fract_y
_atom_site_fract_z
_atom_type_partial_charge
C1    C     C_R   0.085928 0.087623 0.353804 -0.141377
C2    C     C_R   0.245232 0.069905 0.544990 -0.131310
C3    C     C_R   0.151684 0.223045 0.708992 -0.143188
C4    C     C_R   0.761396 0.925925 0.504912 -0.144676
C5    C     C_R   0.998085 0.762985 0.430212 -0.147644
C6    C     C_R   0.227120 0.274672 0.711007 0.046497
C7    C     C_R   0.945915 0.708890 0.449898 0.086268
C8    C     C_R   0.253303 0.997317 0.535311 0.074780
C9    C     C_R   0.022412 0.978412 0.725004 0.036198
C10   C     C_R   0.859837 0.569347 0.444211 -0.262961
C11   C     C_R   0.914360 0.616827 0.420331 0.114512
C12   C     C_R   0.757198 0.994759 0.549141 0.084864
C13   C     C_R   0.944759 0.577419 0.373681 -0.263405
C14   C     C_R   0.931558 0.495895 0.360545 0.143256
C15   C     C_R   0.885398 0.452536 0.392760 0.027166
C16   C     C_R   0.839252 0.815979 0.281397 -0.124834
C17   C     C_R   0.845839 0.487619 0.431410 0.143539
C18   C     C_R   0.970802 0.460639 0.322276 -0.209328
C19   C     C_R   0.972011 0.387365 0.323149 -0.205788
C20   C     C_R   0.933989 0.349051 0.362307 0.141371
C21   C     C_R   0.886480 0.378809 0.393511 0.026349
C22   C     C_R   0.847859 0.340472 0.432798 0.141143
C23   C     C_R   0.756946 0.791704 0.273215 0.038673
C24   C     C_R   0.800795 0.370452 0.463728 -0.206227
C25   C     C_R   0.799905 0.443951 0.463147 -0.209326
C26   C     C_R   0.950636 0.288170 0.378274 -0.257432
C27   C     C_R   0.923058 0.259622 0.427387 0.115803
C28   C     C_R   0.948137 0.195153 0.520018 -0.131901
C29   C     C_R   0.864923 0.279459 0.447988 -0.257564
C30   C     C_R   0.329947 0.915638 0.552618 -0.257014
C31   C     C_R   0.330190 0.993860 0.573272 0.115907
C32   C     C_R   0.406655 0.069334 0.622236 -0.258555
C33   C     C_R   0.483084 0.068270 0.637816 0.142137
C34   C     C_R   0.963413 0.219596 0.465235 0.074730
C35   C     C_R   0.482362 0.990335 0.606405 0.026258
C36   C     C_R   0.405745 0.913396 0.567391 0.140735
C37   C     C_R   0.559549 0.144488 0.676705 -0.206910
C38   C     C_R   0.633535 0.144139 0.677104 -0.209188
C39   C     C_R   0.631364 0.067576 0.638627 0.143305
C40   C     C_R   0.760741 0.809685 0.345980 -0.128207
C41   C     C_R   0.556675 0.989997 0.606660 0.027156
C42   C     C_R   0.553964 0.912748 0.567798 0.143516
C43   C     C_R   0.479427 0.835862 0.536319 -0.209257
C44   C     C_R   0.405506 0.836174 0.536234 -0.205573
C45   C     C_R   0.229232 0.229467 0.644892 -0.145792
C46   C     C_R   0.699896 0.067966 0.625145 -0.263076
C47   C     C_R   0.693775 0.992061 0.578461 0.114797
C48   C     C_R   0.623034 0.914258 0.554648 -0.263965
C49   C     C_R   0.281851 0.366482 0.760769 0.143610
C50   C     C_R   0.253370 0.414064 0.802950 -0.189165
C51   C     C_R   0.306889 0.499941 0.852422 -0.161267
C52   C     C_R   0.026412 0.201899 0.455415 -0.129146
C53   C     C_R   0.389904 0.539438 0.860795 0.230932
C54   C     C_R   0.416371 0.493632 0.814850 -0.183442
C55   C     C_R   0.363032 0.407700 0.765583 -0.179552
C56   C     C_R   0.920402 0.756257 0.494273 -0.145195
C57   C     C_R   0.613852 0.699351 0.063772 -0.152363
C58   C     C_R   0.685039 0.732466 0.131384 -0.188709
C59   C     C_R   0.606549 0.756193 0.203588 -0.170840
C60   C     C_R   0.534975 0.722607 0.135674 -0.189621
C61   C     C_R   0.537617 0.693016 0.065150 0.228013
C62   C     C_2   0.454529 0.622704 0.924841 -0.232407
C63   C     C_2   0.457375 0.641799 0.994846 -0.220219
C64   C     C_R   0.830801 0.066145 0.569358 -0.147319
C65   C     C_R   0.681903 0.759848 0.202000 0.144463
C66   C     C_R   0.100707 0.024113 0.231506 0.143952
C67   C     C_R   0.175531 0.928617 0.480316 -0.130160
C68   C     C_R   0.065892 0.951662 0.162538 -0.193919
C69   C     C_R   0.099593 0.953461 0.110179 -0.154388
C70   C     C_R   0.169036 0.028066 0.125451 0.227555
C71   C     C_R   0.204379 0.100373 0.194466 -0.188750
C72   C     C_R   0.170921 0.098427 0.247326 -0.174822
C73   C     C_R   0.187303 0.039420 0.917743 -0.159381
C74   C     C_R   0.146481 0.042474 0.850757 -0.186581
C75   C     C_R   0.037665 0.897256 0.800425 -0.171704
C76   C     C_R   0.016253 0.947439 0.289754 -0.136953
C77   C     C_R   0.078587 0.894229 0.867421 -0.183329
C78   C     C_R   0.034782 0.052531 0.717768 -0.126543
C79   C     C_R   0.151237 0.966541 0.927919 0.229305
C80   C     C_2   0.194631 0.036264 0.064840 -0.220708
C81   C     C_2   0.177125 0.968435 0.004020 -0.231809
C82   C     C_R   0.069424 0.972565 0.792803 0.144071
C83   C     C_R   0.063904 0.020715 0.286348 0.046543
C84   C     C_R   0.965521 0.911290 0.653267 -0.129202
H1    H     H_    0.133491 0.152792 0.376287 0.085315
H2    H     H_    0.984509 0.611797 0.352484 0.116266
H3    H     H_    0.005280 0.492718 0.296171 0.128194
H4    H     H_    0.721739 0.859939 0.488820 0.086288
H5    H     H_    0.007557 0.364215 0.297870 0.129525
H6    H     H_    0.991767 0.269885 0.358359 0.118707
H7    H     H_    0.839159 0.254274 0.482210 0.118689
H8    H     H_    0.769730 0.340654 0.493027 0.129463
H9    H     H_    0.768004 0.469548 0.491850 0.127961
H10   H     H_    0.271379 0.856501 0.518553 0.118891
H11   H     H_    0.407785 0.129881 0.642199 0.117442
H12   H     H_    0.869805 0.732242 0.510023 0.086307
H13   H     H_    0.561098 0.204682 0.702132 0.128232
H14   H     H_    0.691022 0.204078 0.703027 0.127761
H15   H     H_    0.754874 0.128400 0.646230 0.116086
H16   H     H_    0.860568 0.813246 0.237292 0.092178
H17   H     H_    0.618200 0.854918 0.520740 0.116474
H18   H     H_    0.476960 0.775970 0.507463 0.128326
H19   H     H_    0.347166 0.776532 0.507131 0.129862
H20   H     H_    0.190238 0.385282 0.798720 0.111824
H21   H     H_    0.741392 0.733301 0.127547 0.110417
H22   H     H_    0.602020 0.777857 0.256933 0.113844
H23   H     H_    0.158036 0.862295 0.458728 0.095929
H24   H     H_    0.401832 0.607011 0.001308 0.132318
H25   H     H_    0.480345 0.522965 0.820726 0.110244
H26   H     H_    0.618018 0.674087 0.010769 0.109580
H27   H     H_    0.386668 0.372979 0.733543 0.110426
H28   H     H_    0.902966 0.198814 0.541706 0.095697
H29   H     H_    0.509775 0.658001 0.918313 0.131366
H30   H     H_    0.284247 0.534597 0.885863 0.113353
H31   H     H_    0.476596 0.717106 0.138079 0.115978
H32   H     H_    0.010767 0.893902 0.147543 0.111291
H33   H     H_    0.174548 0.100304 0.845333 0.118077
H34   H     H_    0.076618 0.116697 0.761853 0.096248
H35   H     H_    0.979017 0.842002 0.756445 0.110670
H36   H     H_    0.160020 0.907883 0.006097 0.131013
H37   H     H_    0.256620 0.159077 0.206591 0.115633
H38   H     H_    0.244824 0.095257 0.962763 0.115333
H39   H     H_    0.199886 0.155442 0.299951 0.109926
H40   H     H_    0.709090 0.800002 0.361631 0.093213
H41   H     H_    0.212814 0.097341 0.063716 0.133400
H42   H     H_    0.067687 0.897557 0.056068 0.110673
H43   H     H_    0.049806 0.837355 0.874179 0.109919
H44   H     H_    0.053853 0.212084 0.417076 0.095471
H45   H     H_    0.944874 0.844803 0.637296 0.097784
H46   H     H_    0.855466 0.129413 0.612798 0.086614
H47   H     H_    0.001324 0.883864 0.254138 0.086737
H48   H     H_    0.270780 0.255694 0.621137 0.090048
H49   H     H_    0.292632 0.134762 0.583591 0.094948
H50   H     H_    0.122900 0.242290 0.744871 0.086668
H51   H     H_    0.019069 0.745418 0.386801 0.086795
H52   H     H_    0.833505 0.597568 0.478053 0.116391
N1    N     N_R   0.052580 0.056040 0.395500 -0.037019
N2    N     N_R   0.890210 0.849400 0.355780 -0.039096
N3    N     N_R   0.997110 0.161140 0.539580 -0.040788
N4    N     N_R   0.841950 0.845400 0.395490 -0.038793
N5    N     N_R   0.045360 0.165140 0.499870 -0.040499
N6    N     N_R   0.877490 0.041510 0.539580 -0.038278
N7    N     N_R   0.009820 0.969030 0.355780 -0.037092
N8    N     N_R   0.158050 0.154600 0.604510 -0.036416
N9    N     N_R   0.954640 0.834860 0.500130 -0.038431
N10   N     N_R   0.122510 0.958490 0.460420 -0.041101
N11   N     N_R   0.990180 0.030970 0.644220 -0.039019
N12   N     N_R   0.947420 0.943960 0.604500 -0.039073
N13   N     N_R   0.165270 0.045500 0.500140 -0.040898
N14   N     N_R   0.109790 0.150600 0.644220 -0.037036
N15   N     N_R   0.002890 0.838860 0.460420 -0.038294
N16   N     N_R   0.834730 0.954500 0.499860 -0.038164
Ni1   Ni    Ni4+2 0.104370 0.104380 0.500010 0.211837
Ni2   Ni    Ni4+2 0.895630 0.895620 0.499990 0.210991
Ni3   Ni    Ni4+2 0.006300 0.904810 0.408930 0.211528
Ni4   Ni    Ni4+2 0.993700 0.095190 0.591070 0.210438

loop_
_geom_bond_atom_site_label_1
_geom_bond_atom_site_label_2
_ccdc_geom_bond_type
N2    Ni3   S    
C66   C68   A    
C46   H15   S    
C25   H9    S    
C6    C45   A    
C27   C29   A    
C11   C13   A    
C41   C42   A    
C14   C18   A    
N11   N12   A    
C38   H14   S    
C3    C6    A    
N5    Ni1   S    
C37   H13   S    
C52   H44   S    
C39   C41   A    
C53   C54   A    
C28   H28   S    
C7    C11   S    
C81   H36   S    
C26   C27   A    
C37   C38   A    
C64   N6    A    
C22   C29   A    
C10   H52   S    
C30   C31   A    
C12   C64   A    
C76   H47   S    
C80   H41   S    
C10   C17   A    
C23   C40   A    
C84   H45   S    
C56   N9    A    
C15   C17   A    
C18   C19   A    
C73   C74   A    
N6    N16   A    
N8    Ni1   S    
C61   C63   S    
N13   Ni1   S    
N8    N14   A    
C66   C83   S    
C46   C47   A    
C66   C72   A    
N10   Ni3   S    
C35   C36   A    
C68   C69   A    
C13   H2    S    
C45   N8    A    
C70   C71   A    
N15   Ni3   S    
C4    C12   A    
C77   H43   S    
C9    C82   S    
C55   H27   S    
C2    N13   A    
C84   N12   A    
N1    N7    A    
C28   C34   A    
C59   C60   A    
N14   Ni4   S    
C21   C22   A    
C28   N3    A    
N12   Ni2   S    
C7    C56   A    
C74   C82   A    
C12   C47   S    
C40   H40   S    
C24   H8    S    
C76   C83   A    
C44   H19   S    
C77   C79   A    
C27   C34   S    
C1    H1    S    
C23   C65   S    
C4    N16   A    
C16   N2    A    
C2    H49   S    
C70   C80   S    
C59   H22   S    
C75   H35   S    
C51   H30   S    
C62   H29   S    
C5    C7    A    
C16   H16   S    
C49   C55   A    
C33   C37   A    
C54   H25   S    
C60   C61   A    
C51   C53   A    
C43   C44   A    
C62   C63   D    
C19   H5    S    
N10   N13   A    
C53   C62   S    
C58   C65   A    
N7    Ni3   S    
C47   C48   A    
C67   N10   A    
C50   C51   A    
C73   C79   A    
N1    Ni1   S    
C75   C82   A    
C42   C48   A    
C24   C25   A    
N11   Ni4   S    
C75   C77   A    
N9    N15   A    
N2    N4    A    
C78   N11   A    
C68   H32   S    
C39   C46   A    
N9    Ni2   S    
N16   Ni2   S    
C69   H42   S    
C49   C50   A    
C16   C23   A    
C72   H39   S    
C22   C24   A    
C36   C44   A    
C1    C83   A    
C42   C43   A    
C29   H7    S    
C1    N1    A    
C79   C81   S    
C5    H51   S    
C74   H33   S    
C54   C55   A    
C3    N14   A    
C78   H34   S    
C8    C31   S    
C71   H37   S    
C31   C32   A    
C2    C8    A    
C18   H3    S    
C64   H46   S    
C80   C81   D    
C57   H26   S    
C57   C61   A    
C4    H4    S    
C26   H6    S    
C34   C52   A    
C52   N5    A    
C5    N15   A    
C30   C36   A    
C58   H21   S    
C17   C25   A    
C32   C33   A    
C3    H50   S    
C19   C20   A    
C43   H18   S    
C8    C67   A    
C71   C72   A    
C30   H10   S    
C59   C65   A    
N3    N5    A    
C67   H23   S    
C57   C58   A    
C38   C39   A    
C20   C26   A    
N3    Ni4   S    
C48   H17   S    
C40   N4    A    
C33   C35   A    
C9    C78   A    
C6    C49   S    
C56   H12   S    
C69   C70   A    
C35   C41   A    
C10   C11   A    
C9    C84   A    
C76   N7    A    
C15   C21   A    
C32   H11   S    
C20   C21   A    
C45   H48   S    
C73   H38   S    
C14   C15   A    
C60   H31   S    
N6    Ni4   S    
C63   H24   S    
C13   C14   A    
C50   H20   S    
N4    Ni2   S    
