data_mof_unit_pretest_151.cif
_audit_creation_date              2012-10-26T20:22:32-0400
_audit_creation_method            fapswitch 2.2
_symmetry_space_group_name_H-M    P1
_symmetry_Int_Tables_number       1
_space_group_crystal_system       triclinic
_cell_length_a                    9.604161
_cell_length_b                    10.937724
_cell_length_c                    17.385564
_cell_angle_alpha                 93.946773
_cell_angle_beta                  86.717541
_cell_angle_gamma                 89.630304
_cell_volume                      1818.89341505

loop_
_atom_site_label
_atom_site_type_symbol
_atom_type_description
_atom_site_fract_x
_atom_site_fract_y
_atom_site_fract_z
_atom_type_partial_charge
C1    C     C_R   0.500816 0.737052 0.494549 0.595064
C2    C     C_R   0.081274 0.418498 0.452287 0.348163
C3    C     C_R   0.066943 0.586682 0.545242 0.147865
C4    C     C_R   0.933057 0.413317 0.454759 0.147877
C5    C     C_R   0.482747 0.494911 0.650165 0.587273
C6    C     C_R   0.517254 0.505101 0.349836 0.587299
C7    C     C_R   0.478918 0.491834 0.736022 -0.009159
C8    C     C_R   0.521095 0.508219 0.263981 -0.009182
C9    C     C_R   0.605123 0.471327 0.772455 0.019327
C10   C     C_R   0.394900 0.528747 0.227540 0.019303
C11   C     C_R   0.612545 0.501444 0.850919 -0.075392
C12   C     C_R   0.499184 0.262950 0.505454 0.595057
C13   C     C_R   0.387511 0.498670 0.149068 -0.075411
C14   C     C_R   0.494449 0.539529 0.896144 0.002551
C15   C     C_R   0.505622 0.460617 0.103849 0.002535
C16   C     C_R   0.363560 0.545505 0.863801 0.087708
C17   C     C_R   0.636500 0.454644 0.136203 0.087737
C18   C     C_R   0.355434 0.519446 0.783435 0.233341
C19   C     C_R   0.644597 0.480649 0.216574 0.233324
C20   C     C_2   0.507921 0.549932 0.979582 0.223725
C21   C     C_2   0.492170 0.450217 0.020410 0.223725
C22   C     C_2   0.727037 0.405377 0.733039 0.645914
C23   C     C_R   0.627688 0.937181 0.500034 0.228566
C24   C     C_2   0.272968 0.594680 0.266951 0.645911
C25   C     C_2   0.236290 0.578626 0.914132 0.654044
C26   C     C_2   0.763788 0.421595 0.085882 0.654079
C27   C     C_2   0.126621 0.696945 0.586432 0.692168
C28   C     C_2   0.873376 0.303057 0.413568 0.692147
C29   C     C_R   0.372308 0.062823 0.499980 0.228572
C30   C     C_R   0.622256 0.063401 0.516678 0.211375
C31   C     C_R   0.377740 0.936603 0.483336 0.211371
C32   C     C_R   0.497082 0.128760 0.510110 -0.052608
C33   C     C_R   0.502915 0.871244 0.489900 -0.052613
C34   C     C_R   0.918725 0.581500 0.547715 0.348162
Cl1   Cl    Cl    0.810711 0.483567 0.255264 -0.433076
Cl2   Cl    Cl    0.180179 0.327327 0.380653 -0.395554
Cl3   Cl    Cl    0.189312 0.516512 0.744757 -0.433054
Cl4   Cl    Cl    0.443995 0.306545 0.977729 -0.434463
Cl5   Cl    Cl    0.556098 0.693603 0.022263 -0.434454
Cl6   Cl    Cl    0.795830 0.869590 0.482391 -0.347196
Cl7   Cl    Cl    0.204168 0.130416 0.517626 -0.347207
Cl8   Cl    Cl    0.769312 0.132620 0.557574 -0.351525
Cl9   Cl    Cl    0.230678 0.867389 0.442443 -0.351528
Cl10  Cl    Cl    0.819820 0.672662 0.619352 -0.395516
Cu1   Cu    Cu3+1 0.359340 0.499980 0.500000 1.197627
Cu2   Cu    Cu3+1 0.640660 0.500020 0.500000 1.197604
H1    H     H_    0.290722 0.513172 0.121466 0.200519
H2    H     H_    0.709345 0.486943 0.878511 0.200500
H3    H     H_    0.935476 0.385567 0.720502 0.392300
H4    H     H_    0.064562 0.614607 0.279391 0.392351
H5    H     H_    0.033729 0.545957 0.941658 0.360595
H6    H     H_    0.966329 0.454351 0.058388 0.360609
H7    H     H_    0.109882 0.879424 0.613650 0.384625
H8    H     H_    0.890097 0.120572 0.386361 0.384615
N1    N     N_R   0.147930 0.499970 0.499980 -0.292424
N2    N     N_R   0.852070 0.500030 0.500020 -0.292434
O1    O     O_R   0.381260 0.680340 0.500000 -0.464379
O2    O     O_R   0.862109 0.439843 0.750286 -0.598267
O3    O     O_2   0.290851 0.683039 0.311971 -0.425617
O4    O     O_R   0.137928 0.560345 0.249598 -0.598348
O5    O     O_2   0.238501 0.665159 0.962478 -0.423815
O6    O     O_R   0.114402 0.510650 0.906810 -0.587731
O7    O     O_2   0.761627 0.335095 0.037514 -0.423859
O8    O     O_R   0.885636 0.489605 0.093236 -0.587730
O9    O     O_2   0.225467 0.689492 0.626535 -0.437084
O10   O     O_R   0.063041 0.811574 0.582202 -0.541943
O11   O     O_2   0.774549 0.310517 0.373452 -0.437071
O12   O     O_R   0.618740 0.319660 0.500000 -0.464420
O13   O     O_R   0.936937 0.188423 0.417811 -0.541958
O14   O     O_R   0.618830 0.680370 0.500010 -0.437022
O15   O     O_R   0.381170 0.319630 0.499990 -0.437018
O16   O     O_R   0.367440 0.500000 0.613600 -0.435785
O17   O     O_R   0.632560 0.500000 0.386400 -0.435779
O18   O     O_R   0.605010 0.500030 0.613600 -0.469695
O19   O     O_R   0.394990 0.499970 0.386400 -0.469634
O20   O     O_2   0.709123 0.316911 0.688107 -0.425580

loop_
_geom_bond_atom_site_label_1
_geom_bond_atom_site_label_2
_ccdc_geom_bond_type
C34   N2    A    
Cu1   O15   S    
C28   O13   S    
C22   O20   D    
C1    C33   S    
C6    O19   A    
Cu1   Cu2   S    
C12   O12   A    
Cu1   O1    S    
C31   Cl9   S    
C17   C26   S    
C18   Cl3   S    
C5    O16   A    
C2    N1    A    
C11   C14   A    
C9    C22   S    
C23   Cl6   S    
C15   C17   A    
C5    O18   A    
C26   O8    S    
C3    N1    A    
C21   Cl4   S    
C23   C33   A    
C31   C33   A    
C12   C32   S    
Cu1   O16   S    
C11   H2    S    
H5    O6    S    
C4    C28   S    
C8    C19   A    
C23   C30   A    
C14   C20   S    
C28   O11   D    
C34   Cl10  S    
H6    O8    S    
C13   H1    S    
C20   Cl5   S    
C6    C8    S    
C3    C34   A    
C10   C24   S    
H3    O2    S    
C2    C4    A    
C26   O7    D    
Cu2   O12   S    
C27   O9    D    
C1    O1    A    
C24   O4    S    
C7    C18   A    
C25   O5    D    
H7    O10   S    
C9    C11   A    
C16   C18   A    
C12   O15   A    
C13   C15   A    
C14   C16   A    
Cu2   O18   S    
C6    O17   A    
C5    C7    S    
C2    Cl2   S    
C16   C25   S    
C7    C9    A    
C29   Cl7   S    
C10   C13   A    
C22   O2    S    
C29   C32   A    
C1    O14   A    
Cu1   O19   S    
H4    O4    S    
C3    C27   S    
C29   C31   A    
C27   O10   S    
C19   Cl1   S    
C30   C32   A    
H8    O13   S    
C24   O3    D    
C17   C19   A    
C25   O6    S    
Cu2   O14   S    
C15   C21   S    
C20   C21   D    
Cu1   N1    S    
C8    C10   A    
Cu2   N2    S    
C30   Cl8   S    
Cu2   O17   S    
C4    N2    A    
