data_mof_unit_pretest_1070.cif
_audit_creation_date              2012-12-10T17:23:10-0500
_audit_creation_method            fapswitch 2.2
_symmetry_space_group_name_H-M    P1
_symmetry_Int_Tables_number       1
_space_group_crystal_system       triclinic
_cell_length_a                    15.853212
_cell_length_b                    10.806777
_cell_length_c                    9.663902
_cell_angle_alpha                 87.635967
_cell_angle_beta                  90.631439
_cell_angle_gamma                 94.24619
_cell_volume                      1649.63775528

loop_
_atom_site_label
_atom_site_type_symbol
_atom_type_description
_atom_site_fract_x
_atom_site_fract_y
_atom_site_fract_z
_atom_type_partial_charge
C1    C     C_R   0.508116 0.263292 0.503684 0.881192
C2    C     C_3   0.083293 0.489993 0.498323 -0.227789
C3    C     C_3   0.979320 0.606218 0.522509 0.337091
C4    C     C_3   0.916194 0.493452 0.501458 -0.229840
C5    C     C_3   0.031706 0.570939 0.397620 -0.347129
C6    C     C_3   0.968237 0.456676 0.378180 0.225934
C7    C     C_1   0.174845 0.490512 0.497426 0.222932
C8    C     C_1   0.824720 0.496540 0.502399 0.230551
C9    C     C_R   0.486057 0.093906 0.765097 -0.137351
C10   C     C_R   0.443769 0.020892 0.869367 0.347729
C11   C     C_R   0.395804 0.912563 0.835472 0.321582
C12   C     C_R   0.340106 0.496522 0.499400 0.900090
C13   C     C_R   0.400266 0.869686 0.701201 0.298289
C14   C     C_R   0.457642 0.930823 0.605029 -0.054761
C15   C     C_R   0.486758 0.054037 0.627627 -0.051266
C16   C     C_R   0.519485 0.128825 0.513252 -0.169479
C17   C     C_R   0.552853 0.070324 0.399952 0.447222
C18   C     C_R   0.538702 0.941986 0.391481 -0.173658
C19   C     C_R   0.490969 0.871882 0.492156 -0.079895
C20   C     C_R   0.612175 0.667812 0.138454 -0.152214
C21   C     C_R   0.664433 0.754670 0.064182 -0.189737
C22   C     C_R   0.664110 0.756593 0.921013 0.413137
C23   C     C_R   0.495686 0.737173 0.497223 0.826308
C24   C     C_R   0.612834 0.668259 0.852067 -0.186674
C25   C     C_R   0.556082 0.581335 0.923343 0.078355
C26   C     C_R   0.556230 0.580855 0.072166 0.146814
C27   C     C_R   0.441036 0.425492 0.074086 0.441553
C28   C     C_R   0.445086 0.423633 0.925935 0.408123
C29   C     C_R   0.659863 0.500880 0.500660 0.790183
C30   C     C_3   0.968339 0.413207 0.600961 0.242249
C31   C     C_3   0.020604 0.376694 0.477131 0.300872
C32   C     C_1   0.250385 0.492655 0.497891 0.029384
C33   C     C_1   0.749367 0.499037 0.502148 -0.010744
C34   C     C_3   0.031540 0.526613 0.621872 0.291828
Cu1   Cu    Cu3+1 0.499990 0.499990 0.640660 1.051491
Cu2   Cu    Cu3+1 0.500010 0.500010 0.359340 1.095483
H1    H     H_    0.568536 0.895594 0.309920 0.190137
H2    H     H_    0.616151 0.675089 0.247683 0.202107
H3    H     H_    0.704775 0.821753 0.119051 0.231128
H4    H     H_    0.618790 0.672339 0.742783 0.216294
H5    H     H_    0.058001 0.635583 0.314004 0.230711
H6    H     H_    0.522624 0.176777 0.795424 0.225878
N1    N     N_R   0.500800 0.501210 0.147910 -0.260010
N2    N     N_R   0.500830 0.501290 0.852040 -0.245279
O1    O     O_R   0.499990 0.319640 0.618810 -0.575513
O2    O     O_R   0.500000 0.319660 0.381240 -0.490933
O3    O     O_R   0.379070 0.499980 0.618770 -0.499818
O4    O     O_R   0.379080 0.500000 0.381190 -0.522077
O5    O     O_R   0.500000 0.680340 0.618760 -0.592767
O6    O     O_R   0.500010 0.680360 0.381190 -0.608123
O7    O     O_R   0.620920 0.500000 0.618810 -0.597482
O8    O     O_R   0.620930 0.500020 0.381230 -0.571994
S1    S     S_3+6 0.050056 0.223900 0.448120 0.119551
O9    O     O_2   0.104782 0.227184 0.321822 -0.244176
O10   O     O_2   0.098500 0.177264 0.571689 -0.208874
O11   O     O_3   0.962348 0.129616 0.424362 -0.423950
H7    H     H_    0.981941 0.057023 0.377934 0.408221
Cl1   Cl    Cl    0.332193 0.828972 0.961501 -0.382784
Cl2   Cl    Cl    0.322663 0.756928 0.646874 -0.478744
S2    S     S_3+6 0.345016 0.349257 0.150969 0.134027
O12   O     O_2   0.357730 0.285926 0.289351 -0.251720
O13   O     O_2   0.283918 0.447935 0.165081 -0.270301
O14   O     O_3   0.295113 0.237811 0.057303 -0.389346
H8    H     H_    0.238139 0.222688 0.098489 0.414917
S3    S     S_3+6 0.724490 0.875183 0.828231 0.067334
O15   O     O_2   0.733734 0.842316 0.679767 -0.251184
O16   O     O_2   0.680278 0.993205 0.833317 -0.273578
O17   O     O_3   0.820474 0.896579 0.902937 -0.442012
H9    H     H_    0.848900 0.968515 0.850866 0.418183
Cl3   Cl    Cl    0.375658 0.325038 0.830147 -0.443100
Cl4   Cl    Cl    0.925447 0.309569 0.734903 -0.345357
S4    S     S_3+6 0.924929 0.411717 0.215004 0.137915
O18   O     O_2   0.861961 0.302044 0.237216 -0.153947
O19   O     O_2   0.881237 0.517685 0.147950 -0.224630
O20   O     O_3   0.002281 0.372461 0.111349 -0.379043
H10   H     H_    0.050105 0.434874 0.126656 0.359422
S5    S     S_3+6 0.951746 0.759648 0.551766 0.107958
O21   O     O_2   0.894942 0.802443 0.436749 -0.237683
O22   O     O_2   0.906427 0.759382 0.687420 -0.190114
O23   O     O_3   0.040266 0.855199 0.556870 -0.445534
H11   H     H_    0.024603 0.927093 0.608818 0.412809
S6    S     S_3+6 0.074839 0.571878 0.784934 0.143818
O24   O     O_2   0.125130 0.470213 0.846117 -0.199832
O25   O     O_2   0.131458 0.688793 0.764478 -0.169507
O26   O     O_3   0.995688 0.597216 0.892056 -0.417928
H12   H     H_    0.023745 0.636287 0.973061 0.383912
S7    S     S_3+6 0.629048 0.149486 0.288062 0.084621
O27   O     O_2   0.586808 0.226778 0.178800 -0.235631
O28   O     O_2   0.687874 0.232772 0.372009 -0.268014
O29   O     O_3   0.685639 0.047035 0.210218 -0.508945
H13   H     H_    0.724344 0.098086 0.147236 0.421876
Cl5   Cl    Cl    0.448977 0.068659 0.040771 -0.428744

loop_
_geom_bond_atom_site_label_1
_geom_bond_atom_site_label_2
_ccdc_geom_bond_type
S7    O27   D    
C2    C7    S    
C12   O4    A    
Cu1   O3    S    
C30   Cl4   S    
S5    O21   D    
C6    S4    S    
C9    H6    S    
C20   C26   A    
S2    O14   S    
C18   H1    S    
C27   S2    S    
S4    O20   S    
C30   C31   S    
C1    O2    A    
C23   O5    A    
C15   C16   A    
C29   C33   S    
O11   H7    S    
S2    O13   D    
C18   C19   A    
O17   H9    S    
Cu1   Cu2   S    
C16   C17   A    
S3    O16   D    
Cu1   O5    S    
Cu2   O2    S    
C11   Cl1   S    
C9    C10   A    
Cu2   O8    S    
C4    C8    S    
C2    C34   S    
S5    O22   D    
C6    C31   S    
C10   Cl5   S    
C13   C14   A    
C12   C32   S    
C12   O3    A    
C25   N2    A    
C26   N1    A    
S1    O10   D    
C30   C34   S    
C24   C25   A    
C4    C6    S    
S4    O18   D    
C23   O6    A    
C3    C34   S    
C25   C26   A    
O26   H12   S    
C28   N2    A    
S2    O12   D    
C19   C23   S    
O20   H10   S    
C22   S3    S    
C20   H2    S    
C21   H3    S    
S3    O17   S    
C17   C18   A    
C1    C16   S    
C31   S1    S    
Cu1   N2    S    
S4    O19   D    
S6    O24   D    
S6    O25   D    
S7    O28   D    
Cu1   O7    S    
C22   C24   A    
C2    C5    S    
C3    C4    S    
C3    S5    S    
Cu2   O6    S    
C29   O7    A    
S1    O11   S    
C5    H5    S    
C7    C32   T    
C17   S7    S    
C14   C19   A    
C28   Cl3   S    
O23   H11   S    
C3    C5    S    
S1    O9    D    
C13   Cl2   S    
S6    O26   S    
C9    C15   A    
C11   C13   A    
C1    O1    A    
O29   H13   S    
C5    C6    S    
S5    O23   S    
C24   H4    S    
Cu2   O4    S    
C8    C33   T    
C10   C11   A    
O14   H8    S    
C27   N1    A    
C20   C21   A    
S3    O15   D    
S7    O29   S    
C27   C28   A    
C14   C15   A    
C2    C31   S    
Cu2   N1    S    
C34   S6    S    
C21   C22   A    
C4    C30   S    
C29   O8    A    
Cu1   O1    S    
