data_mof_unit_pretest_464.cif
_audit_creation_date              2012-12-10T17:31:24-0500
_audit_creation_method            fapswitch 2.2
_symmetry_space_group_name_H-M    P1
_symmetry_Int_Tables_number       1
_space_group_crystal_system       triclinic
_cell_length_a                    18.893135
_cell_length_b                    18.774864
_cell_length_c                    12.425476
_cell_angle_alpha                 89.999961
_cell_angle_beta                  129.65256
_cell_angle_gamma                 90.000105
_cell_volume                      3393.47050197

loop_
_atom_site_label
_atom_site_type_symbol
_atom_type_description
_atom_site_fract_x
_atom_site_fract_y
_atom_site_fract_z
_atom_type_partial_charge
C1    C     C_R   0.610754 0.897112 0.651080 0.918713
C2    C     C_R   0.611873 0.102180 0.652354 0.932383
C3    C     C_R   0.111873 0.397820 0.652354 0.932387
C4    C     C_R   0.110753 0.602888 0.651078 0.918714
C5    C     C_R   0.261860 0.754880 0.069439 -0.148099
C6    C     C_R   0.259990 0.245001 0.068377 -0.149760
C7    C     C_R   0.759992 0.254996 0.068382 -0.149757
C8    C     C_R   0.761865 0.745124 0.069447 -0.148098
C9    C     C_R   0.685570 0.241737 0.066563 -0.283387
C10   C     C_R   0.694523 0.765791 0.079944 -0.270710
C11   C     C_R   0.194519 0.734212 0.079937 -0.270711
C12   C     C_R   0.185570 0.258262 0.066563 -0.283387
C13   C     C_R   0.605385 0.210810 0.947687 0.596893
C14   C     C_R   0.615226 0.800244 0.966604 0.584339
C15   C     C_R   0.115221 0.699759 0.966596 0.584340
C16   C     C_R   0.105385 0.289190 0.947688 0.596893
C17   C     C_R   0.599200 0.196159 0.832446 0.586038
C18   C     C_R   0.602540 0.810171 0.844575 0.581326
C19   C     C_R   0.102536 0.689832 0.844568 0.581328
C20   C     C_R   0.099199 0.303841 0.832446 0.586040
C21   C     C_R   0.321341 0.810760 0.154034 0.734885
C22   C     C_R   0.323968 0.192367 0.159059 0.730576
C23   C     C_R   0.823972 0.307629 0.159066 0.730569
C24   C     C_R   0.821346 0.689244 0.154042 0.734882
C25   C     C_R   0.271188 0.803928 0.292179 -0.290985
C26   C     C_R   0.259769 0.188023 0.277685 -0.282364
C27   C     C_R   0.759766 0.311979 0.277682 -0.282360
C28   C     C_R   0.771189 0.696072 0.292183 -0.290983
C29   C     C_R   0.681176 0.156996 0.746648 -0.147632
C30   C     C_R   0.677111 0.839927 0.741805 -0.153086
C31   C     C_R   0.177106 0.660076 0.741798 -0.153088
C32   C     C_R   0.181174 0.343003 0.746646 -0.147632
C33   C     C_R   0.687715 0.985038 0.293029 -0.121164
C34   C     C_R   0.187716 0.514960 0.293029 -0.121166
C35   C     C_R   0.342576 0.996077 0.625389 -0.068974
C36   C     C_R   0.842576 0.503923 0.625389 -0.068972
C37   C     C_R   0.307747 0.984373 0.694142 0.498034
C38   C     C_R   0.807747 0.515627 0.694143 0.498037
C39   C     C_R   0.386705 0.101463 0.346272 0.867072
C40   C     C_R   0.387237 0.898287 0.346870 0.857987
C41   C     C_R   0.887237 0.601713 0.346871 0.857986
C42   C     C_R   0.886705 0.398536 0.346273 0.867071
C43   C     C_R   0.366786 0.979199 0.839598 0.689814
C44   C     C_R   0.866787 0.520801 0.839599 0.689814
C45   C     C_R   0.462548 0.991113 0.920683 -0.233007
C46   C     C_R   0.962548 0.508887 0.920684 -0.233008
C47   C     C_R   0.495957 0.997043 0.844352 0.040038
C48   C     C_R   0.995957 0.502957 0.844352 0.040036
C49   C     C_R   0.527026 0.992779 0.073241 -0.111705
C50   C     C_R   0.027027 0.507221 0.073241 -0.111706
C51   C     C_R   0.623051 0.987959 0.144969 -0.143712
C52   C     C_R   0.123052 0.512040 0.144970 -0.143714
C53   C     C_R   0.653204 0.988855 0.067814 0.515311
C54   C     C_R   0.153204 0.511144 0.067814 0.515313
C55   C     C_R   0.592990 0.996366 0.924904 0.562897
C56   C     C_R   0.092991 0.503634 0.924904 0.562898
C57   C     C_R   0.501733 0.001762 0.159147 0.971185
C58   C     C_R   0.001733 0.498237 0.159147 0.971181
C59   C     C_R   0.657267 0.992495 0.369180 -0.003400
C60   C     C_R   0.157267 0.507504 0.369180 -0.003392
C61   C     C_R   0.689939 0.265397 0.177725 0.680626
C62   C     C_R   0.703735 0.745389 0.196933 0.681809
C63   C     C_R   0.203732 0.754612 0.196928 0.681814
C64   C     C_R   0.189941 0.234604 0.177728 0.680629
C65   C     C_R   0.325869 0.836920 0.264693 -0.322151
C66   C     C_R   0.323090 0.161591 0.261770 -0.314713
C67   C     C_R   0.823091 0.338408 0.261771 -0.314710
C68   C     C_R   0.825871 0.663081 0.264697 -0.322148
C69   C     C_R   0.760710 0.161140 0.759952 0.490516
C70   C     C_R   0.751591 0.828921 0.744011 0.497030
C71   C     C_R   0.251583 0.671085 0.743998 0.497029
C72   C     C_R   0.260708 0.338859 0.759949 0.490511
C73   C     C_R   0.334840 0.696048 0.864710 -0.263526
C74   C     C_R   0.343725 0.318053 0.886308 -0.259913
C75   C     C_R   0.843729 0.181942 0.886315 -0.259914
C76   C     C_R   0.834848 0.803962 0.864726 -0.263519
C77   C     C_R   0.340725 0.720804 0.976140 0.687260
C78   C     C_R   0.345553 0.290451 0.992372 0.683574
C79   C     C_R   0.845556 0.209543 0.992381 0.683579
C80   C     C_R   0.840732 0.779205 0.976153 0.687261
C81   C     C_R   0.762500 0.220562 0.969142 -0.066529
C82   C     C_R   0.760963 0.775728 0.964146 -0.055250
C83   C     C_R   0.260958 0.724277 0.964136 -0.055250
C84   C     C_R   0.262497 0.279434 0.969136 -0.066530
C85   C     C_R   0.679784 0.191743 0.847003 -0.254078
C86   C     C_R   0.678821 0.808209 0.847618 -0.242101
C87   C     C_R   0.178816 0.691795 0.847610 -0.242104
C88   C     C_R   0.179782 0.308255 0.847000 -0.254078
Cu1   Cu    Cu3+1 0.526340 0.000000 0.421010 1.150760
Cu2   Cu    Cu3+1 0.026340 0.500000 0.421010 1.150762
Cu3   Cu    Cu3+1 0.473640 0.000000 0.578990 1.075028
Cu4   Cu    Cu3+1 0.973640 0.500000 0.578990 1.075029
H1    H     H_    0.296188 0.997465 0.512379 0.171319
H2    H     H_    0.796188 0.502535 0.512380 0.171318
N1    N     N_R   0.566260 1.000000 0.302220 -0.278532
N2    N     N_R   0.066260 0.500000 0.302220 -0.278530
N3    N     N_R   0.434410 0.000000 0.697680 -0.191838
N4    N     N_R   0.934410 0.500000 0.697680 -0.191837
O1    O     O_R   0.608610 0.924520 0.551740 -0.567853
O2    O     O_R   0.608610 0.075480 0.551740 -0.563959
O3    O     O_R   0.108610 0.424520 0.551740 -0.563956
O4    O     O_R   0.108610 0.575480 0.551740 -0.567851
O5    O     O_R   0.564110 0.924510 0.685150 -0.492280
O6    O     O_R   0.564110 0.075490 0.685150 -0.487544
O7    O     O_R   0.064110 0.424510 0.685150 -0.487545
O8    O     O_R   0.064110 0.575490 0.685150 -0.492282
O9    O     O_R   0.435880 0.075470 0.314850 -0.470546
O10   O     O_R   0.435880 0.924530 0.314850 -0.484472
O11   O     O_R   0.935880 0.575470 0.314850 -0.484473
O12   O     O_R   0.935880 0.424530 0.314850 -0.470547
O13   O     O_R   0.391380 0.075460 0.448260 -0.599770
O14   O     O_R   0.391380 0.924540 0.448260 -0.604738
O15   O     O_R   0.891380 0.575460 0.448260 -0.604739
O16   O     O_R   0.891380 0.424540 0.448260 -0.599769
C89   C     C_1   0.279953 0.820461 0.413845 0.522260
N5    N     N_1   0.286723 0.833031 0.511255 -0.161701
C90   C     C_1   0.261512 0.166880 0.391208 0.516615
N6    N     N_1   0.262533 0.150621 0.482032 -0.185770
C91   C     C_1   0.761505 0.333125 0.391200 0.516609
N7    N     N_1   0.762522 0.349386 0.482019 -0.185777
C92   C     C_1   0.779951 0.679537 0.413845 0.522262
N8    N     N_1   0.786720 0.666965 0.511252 -0.161700
F1    F     F_    0.744042 0.986447 0.130221 -0.619347
F2    F     F_    0.244042 0.513554 0.130221 -0.619346
C93   C     C_1   0.785468 0.973507 0.369860 0.434856
N9    N     N_1   0.863271 0.964228 0.431646 -0.151940
C94   C     C_1   0.285469 0.526488 0.369860 0.434852
N10   N     N_1   0.363272 0.535764 0.431646 -0.151940
F3    F     F_    0.414834 0.018697 0.103224 -0.546470
F4    F     F_    0.914834 0.481302 0.103223 -0.546479
F5    F     F_    0.329900 0.953036 0.895715 -0.521111
F6    F     F_    0.829901 0.546964 0.895716 -0.521115
F7    F     F_    0.216204 0.973676 0.618450 -0.572835
F8    F     F_    0.716205 0.526324 0.618451 -0.572835
F9    F     F_    0.637531 0.001408 0.874553 -0.632966
F10   F     F_    0.137531 0.498592 0.874553 -0.632964
F11   F     F_    0.529540 0.201560 0.936223 -0.586669
F12   F     F_    0.545216 0.816560 0.966671 -0.591499
F13   F     F_    0.045211 0.683443 0.966663 -0.591496
F14   F     F_    0.029540 0.298439 0.936226 -0.586669
F15   F     F_    0.624613 0.245411 0.186692 -0.559405
F16   F     F_    0.645494 0.771478 0.216532 -0.557807
F17   F     F_    0.145493 0.728521 0.216528 -0.557805
F18   F     F_    0.124619 0.254594 0.186700 -0.559406
F19   F     F_    0.365251 0.845771 0.115809 -0.539752
F20   F     F_    0.379059 0.164753 0.134681 -0.548933
F21   F     F_    0.879069 0.335239 0.134695 -0.548935
F22   F     F_    0.865259 0.654236 0.115820 -0.539755
F23   F     F_    0.760356 0.137717 0.656288 -0.634816
F24   F     F_    0.746895 0.849117 0.634670 -0.635739
F25   F     F_    0.246886 0.650889 0.634658 -0.635736
F26   F     F_    0.260354 0.362284 0.656285 -0.634817
F27   F     F_    0.425466 0.734577 0.099655 -0.557410
F28   F     F_    0.428612 0.281563 0.121369 -0.558725
F29   F     F_    0.928616 0.218426 0.121381 -0.558726
F30   F     F_    0.925473 0.765433 0.099671 -0.557410
C95   C     C_1   0.416580 0.686224 0.880237 0.585404
N11   N     N_1   0.481612 0.676562 0.891803 -0.206262
C96   C     C_1   0.428131 0.334642 0.912833 0.609164
N12   N     N_1   0.495351 0.349383 0.933547 -0.216318
C97   C     C_1   0.928135 0.165354 0.912841 0.609156
N13   N     N_1   0.995355 0.150613 0.933555 -0.216323
C98   C     C_1   0.916591 0.813789 0.880259 0.585402
N14   N     N_1   0.981625 0.823453 0.891831 -0.206278
F31   F     F_    0.513780 0.189431 0.706472 -0.623875
F32   F     F_    0.514793 0.817023 0.723427 -0.630140
F33   F     F_    0.014789 0.682978 0.723419 -0.630141
F34   F     F_    0.013779 0.310571 0.706473 -0.623873
C99   C     C_1   0.723463 0.993773 0.520109 0.517884
N15   N     N_1   0.777776 0.994543 0.640916 -0.204313
C100  C     C_1   0.223463 0.506228 0.520109 0.517881
N16   N     N_1   0.277776 0.505459 0.640916 -0.204317

loop_
_geom_bond_atom_site_label_1
_geom_bond_atom_site_label_2
_ccdc_geom_bond_type
C83   C87   A    
C100  N16   T    
C22   F20   S    
C95   N11   T    
C99   N15   T    
C14   C18   A    
C53   C55   A    
C98   N14   T    
C70   F24   S    
C26   C90   S    
Cu3   O6    S    
C1    O1    A    
C97   N13   T    
C18   F32   S    
Cu4   N4    S    
C40   O14   A    
C10   C62   A    
C3    O7    A    
C15   C19   A    
C18   C86   A    
C75   C79   A    
C19   F33   S    
C74   C96   S    
Cu1   O1    S    
C2    C29   S    
C9    C61   A    
C57   F3    S    
C28   C68   A    
C5    C11   A    
C19   C87   A    
C25   C89   S    
C6    C12   A    
C12   C64   A    
C58   N2    A    
C77   C83   A    
C23   C67   A    
C89   N5    T    
C6    C22   A    
C73   C95   S    
C49   C57   A    
C48   C56   A    
C25   C63   A    
Cu3   O13   S    
C9    C13   A    
C22   C66   A    
C26   C64   A    
C27   C61   A    
C77   F27   S    
C11   C15   A    
C42   O16   A    
Cu2   O4    S    
C14   F12   S    
C44   C46   A    
C34   C94   S    
C49   C51   A    
C4    O4    A    
C50   C52   A    
C76   C80   A    
C45   C49   A    
C30   C86   A    
Cu4   O15   S    
C1    O5    A    
C29   C85   A    
C40   O10   A    
C21   C65   A    
C3    O3    A    
C45   C47   A    
C2    O2    A    
C33   C59   A    
C15   F13   S    
C41   O11   A    
C34   C60   A    
C35   N3    A    
C16   F14   S    
C59   N1    A    
C62   F16   S    
C30   C70   A    
C52   C54   A    
C80   F30   S    
C41   C68   S    
C29   C69   A    
C35   H1    S    
C20   F34   S    
C54   C56   A    
C6    C84   A    
C28   C62   A    
Cu1   O2    S    
C26   C66   A    
C12   C16   A    
C31   C87   A    
C72   C74   A    
C53   F1    S    
Cu3   O5    S    
C55   F9    S    
C79   C81   A    
C28   C92   S    
C78   F28   S    
C64   F18   S    
C72   F26   S    
C82   C86   A    
C23   F21   S    
C33   C51   A    
C51   C53   A    
C21   F19   S    
Cu3   O14   S    
Cu1   N1    S    
C39   O9    A    
Cu2   O3    S    
C38   C44   A    
C36   H2    S    
Cu2   Cu4   S    
C96   N12   T    
C2    O6    A    
C16   C20   A    
Cu1   O9    S    
C33   C93   S    
C50   C58   A    
C25   C65   A    
Cu3   N3    S    
C43   C45   A    
C92   N8    T    
C60   N2    A    
C61   F15   S    
C7    C81   A    
C56   F10   S    
C40   C65   S    
C10   C14   A    
C42   C67   S    
C39   C66   S    
C17   C85   A    
C37   C43   A    
Cu1   Cu3   S    
Cu2   O12   S    
C94   N10   T    
C71   F25   S    
C47   C55   A    
Cu4   O8    S    
C7    C9    A    
C54   F2    S    
C73   C77   A    
C57   N1    A    
C35   C37   A    
C60   C100  S    
C84   C88   A    
C41   O15   A    
C91   N7    T    
C5    C83   A    
Cu2   N2    S    
C27   C91   S    
C44   F6    S    
C48   N4    A    
C46   C50   A    
C34   C52   A    
C47   N3    A    
C13   C17   A    
C75   C97   S    
C69   F23   S    
C43   F5    S    
C42   O12   A    
C17   F31   S    
C90   N6    T    
C70   C76   A    
C39   O13   A    
C93   N9    T    
C4    O8    A    
C58   F4    S    
C7    C23   A    
C20   C88   A    
Cu1   O10   S    
C36   C38   A    
C1    C30   S    
C8    C24   A    
C80   C82   A    
C69   C75   A    
C37   F7    S    
C38   F8    S    
C3    C32   S    
C81   C85   A    
C4    C31   S    
C27   C67   A    
C24   C68   A    
C79   F29   S    
C46   C48   A    
C78   C84   A    
Cu4   O7    S    
C8    C82   A    
C5    C21   A    
C8    C10   A    
C74   C78   A    
C71   C73   A    
C63   F17   S    
C76   C98   S    
C36   N4    A    
Cu2   O11   S    
C59   C99   S    
C11   C63   A    
Cu4   O16   S    
C24   F22   S    
C13   F11   S    
C31   C71   A    
C32   C72   A    
C32   C88   A    
