data_mof_unit_pretest_749.cif
_audit_creation_date              2012-12-10T20:20:41-0500
_audit_creation_method            fapswitch 2.2
_symmetry_space_group_name_H-M    P1
_symmetry_Int_Tables_number       1
_space_group_crystal_system       triclinic
_cell_length_a                    18.983851
_cell_length_b                    18.519193
_cell_length_c                    10.6468
_cell_angle_alpha                 89.34494
_cell_angle_beta                  92.742617
_cell_angle_gamma                 89.397415
_cell_volume                      3738.28747198

loop_
_atom_site_label
_atom_site_type_symbol
_atom_type_description
_atom_site_fract_x
_atom_site_fract_y
_atom_site_fract_z
_atom_type_partial_charge
C1    C     C_R   0.365343 0.500379 0.497186 0.885565
C2    C     C_R   0.634755 0.499541 0.497312 0.880665
C3    C     C_R   0.820969 0.557161 0.463467 -0.312058
C4    C     C_R   0.192126 0.468238 0.330599 -0.261769
C5    C     C_R   0.751106 0.558146 0.495574 -0.190472
C6    C     C_R   0.263852 0.466737 0.361181 -0.206676
C7    C     C_R   0.709168 0.497854 0.471552 -0.082357
C8    C     C_R   0.290204 0.501255 0.469449 -0.071633
C9    C     C_R   0.956084 0.534494 0.292538 0.025466
C10   C     C_R   0.030848 0.535017 0.290883 -0.001400
C11   C     C_R   0.070446 0.495967 0.386037 -0.131037
C12   C     C_R   0.924246 0.493466 0.387126 -0.089158
C13   C     C_R   0.037455 0.450039 0.470132 0.379926
C14   C     C_R   0.964520 0.450989 0.474180 0.373568
C15   C     C_R   0.552611 0.724265 0.566919 0.538025
C16   C     C_R   0.447631 0.727160 0.433968 0.548720
C17   C     C_R   0.555241 0.800576 0.565257 -0.401397
C18   C     C_R   0.449137 0.804291 0.433129 -0.427946
C19   C     C_R   0.502702 0.841060 0.499524 0.045059
C20   C     C_R   0.459798 0.960209 0.578777 -0.237839
C21   C     C_R   0.546026 0.960452 0.419558 -0.228991
C22   C     C_R   0.502000 0.500397 0.260192 0.871716
C23   C     C_R   0.500398 0.499804 0.740237 0.870202
C24   C     C_R   0.458650 0.036462 0.579364 0.083806
C25   C     C_R   0.545560 0.036796 0.416721 0.079683
C26   C     C_R   0.501514 0.075799 0.497253 0.056237
C27   C     C_R   0.503297 0.921775 0.499784 0.119127
C28   C     C_R   0.552825 0.194598 0.564638 -0.292566
C29   C     C_R   0.449629 0.196566 0.429105 -0.304814
C30   C     C_R   0.550187 0.270839 0.572164 0.223826
C31   C     C_R   0.451852 0.272773 0.424031 0.243897
C32   C     C_R   0.501053 0.156900 0.497386 0.074345
C33   C     C_R   0.498538 0.565758 0.062619 0.126009
C34   C     C_R   0.496609 0.565095 0.934498 0.134533
C35   C     C_R   0.511618 0.501846 0.129773 -0.103346
C36   C     C_R   0.507519 0.500464 0.872678 -0.098884
C37   C     C_R   0.533786 0.439535 0.069171 -0.223795
C38   C     C_R   0.530288 0.438520 0.939594 -0.248505
C39   C     C_3   0.434093 0.615003 0.923443 -0.516161
C40   C     C_3   0.436345 0.615679 0.065679 -0.441408
C41   C     C_R   0.736995 0.437149 0.412629 -0.347422
C42   C     C_R   0.245092 0.538084 0.546841 -0.311114
C43   C     C_R   0.806579 0.436960 0.374493 0.564700
C44   C     C_R   0.172803 0.539915 0.516976 0.544319
C45   C     C_R   0.848553 0.496926 0.403644 0.112259
C46   C     C_R   0.146400 0.504957 0.407386 0.089886
H1    H     H_    0.549042 0.390742 0.120909 0.168804
H2    H     H_    0.541493 0.388870 0.892471 0.185200
H3    H     H_    0.598330 0.828218 0.613691 0.159127
H4    H     H_    0.410040 0.836678 0.380410 0.145398
H5    H     H_    0.426962 0.930418 0.641320 0.140396
H6    H     H_    0.579299 0.930849 0.357664 0.144102
H7    H     H_    0.594831 0.163613 0.612333 0.135774
H8    H     H_    0.409419 0.167828 0.374696 0.136402
H9    H     H_    0.446706 0.668127 0.881111 0.194677
H10   H     H_    0.390130 0.589319 0.106084 0.201315
H11   H     H_    0.386259 0.588799 0.881175 0.202164
H12   H     H_    0.450504 0.669041 0.105843 0.218089
H13   H     H_    0.704355 0.390419 0.395310 0.151715
H14   H     H_    0.265675 0.563544 0.631889 0.152362
H15   H     H_    0.854162 0.602765 0.487088 0.152772
H16   H     H_    0.171927 0.438936 0.249304 0.147162
H17   H     H_    0.730194 0.605361 0.540659 0.198057
H18   H     H_    0.298789 0.438852 0.300111 0.143183
N1    N     N_R   0.500000 0.689440 0.500000 -0.154284
N2    N     N_R   0.500000 0.310560 0.500000 -0.122717
O1    O     O_R   0.398180 0.560840 0.499970 -0.561594
O2    O     O_R   0.601820 0.560840 0.500030 -0.559954
O3    O     O_R   0.398180 0.439210 0.499910 -0.643780
O4    O     O_R   0.601820 0.439210 0.500090 -0.656041
O5    O     O_R   0.499990 0.560820 0.316770 -0.585995
O6    O     O_R   0.500010 0.560820 0.683230 -0.604193
O7    O     O_R   0.499990 0.439200 0.316710 -0.645441
O8    O     O_R   0.500010 0.439200 0.683290 -0.640345
Zn1   Zn    Zn3+2 0.500000 0.581210 0.500000 1.016949
Zn2   Zn    Zn3+2 0.500000 0.418790 0.500000 0.908547
O9    O     O_3   0.606625 0.683625 0.625158 -0.589628
C47   C     C_3   0.611132 0.696987 0.755571 0.099917
H19   H     H_    0.558413 0.694476 0.796821 0.133484
H20   H     H_    0.634823 0.750605 0.774802 0.125725
C48   C     C_3   0.658559 0.639690 0.820481 -0.820023
H21   H     H_    0.712737 0.643206 0.786015 0.244402
H22   H     H_    0.660811 0.648045 0.923710 0.204707
H23   H     H_    0.637715 0.584998 0.800608 0.254857
O10   O     O_3   0.396849 0.686880 0.367262 -0.576933
C49   C     C_3   0.336425 0.727339 0.325976 0.064204
H24   H     H_    0.349084 0.762789 0.245227 0.139822
H25   H     H_    0.315429 0.759777 0.403699 0.133658
C50   C     C_3   0.278321 0.676682 0.281377 -0.835358
H26   H     H_    0.260518 0.644052 0.361466 0.252508
H27   H     H_    0.233147 0.709196 0.241425 0.211784
H28   H     H_    0.296912 0.640236 0.207832 0.256359
C51   C     C_3   0.411905 0.074273 0.670105 -0.414741
C52   C     C_3   0.453254 0.092186 0.792989 -0.326967
C53   C     C_3   0.407426 0.133991 0.881744 -0.903749
H29   H     H_    0.389992 0.186311 0.837911 0.267099
H30   H     H_    0.360432 0.101999 0.904424 0.261109
H31   H     H_    0.438161 0.145138 0.970590 0.246716
H32   H     H_    0.472113 0.041309 0.840481 0.217290
H33   H     H_    0.499969 0.125237 0.773169 0.224351
H34   H     H_    0.388357 0.124168 0.626291 0.210310
H35   H     H_    0.366849 0.039123 0.692092 0.189384
C54   C     C_3   0.592523 0.075099 0.326648 -0.412118
C55   C     C_3   0.551637 0.096272 0.203680 -0.327610
C56   C     C_3   0.597321 0.140329 0.117575 -0.912496
H36   H     H_    0.613511 0.191463 0.163698 0.259207
H37   H     H_    0.645093 0.108892 0.094756 0.264242
H38   H     H_    0.566973 0.153888 0.028562 0.248822
H39   H     H_    0.533981 0.046677 0.154013 0.218137
H40   H     H_    0.504191 0.128857 0.223585 0.221081
H41   H     H_    0.616117 0.123575 0.371520 0.208458
H42   H     H_    0.637555 0.039332 0.304280 0.190784
C57   C     C_3   0.607688 0.305773 0.654029 -0.386485
C58   C     C_3   0.617711 0.271725 0.786744 -0.408176
C59   C     C_3   0.674197 0.311181 0.865945 -0.903548
H43   H     H_    0.726689 0.302910 0.826195 0.268916
H44   H     H_    0.662846 0.370029 0.868483 0.261728
H45   H     H_    0.676063 0.289421 0.963691 0.250677
H46   H     H_    0.566949 0.273096 0.834430 0.224926
H47   H     H_    0.635096 0.214532 0.782588 0.224067
H48   H     H_    0.658147 0.301693 0.605584 0.193497
H49   H     H_    0.596036 0.362820 0.668048 0.262492
C60   C     C_3   0.401166 0.308648 0.328153 -0.400060
C61   C     C_3   0.417295 0.286932 0.193356 -0.377800
C62   C     C_3   0.373605 0.331539 0.095864 -0.872125
H50   H     H_    0.316445 0.323223 0.107856 0.256380
H51   H     H_    0.385499 0.389867 0.105582 0.264835
H52   H     H_    0.386516 0.314498 0.999892 0.256841
H53   H     H_    0.474150 0.294856 0.177868 0.232426
H54   H     H_    0.405336 0.228982 0.178516 0.213981
H55   H     H_    0.346358 0.293076 0.348064 0.175366
H56   H     H_    0.403056 0.367134 0.332182 0.263361
O11   O     O_3   0.837341 0.377350 0.319417 -0.601888
C63   C     C_3   0.792644 0.347910 0.223414 0.055747
H57   H     H_    0.761393 0.390215 0.169218 0.128027
H58   H     H_    0.756223 0.308569 0.264848 0.153177
C64   C     C_3   0.837572 0.307941 0.131594 -0.827523
H59   H     H_    0.868808 0.264494 0.181702 0.261890
H60   H     H_    0.803240 0.283358 0.056752 0.211277
H61   H     H_    0.874124 0.346013 0.087414 0.247298
O12   O     O_3   0.128034 0.565865 0.605111 -0.595733
C65   C     C_3   0.108277 0.637571 0.573339 0.049044
H62   H     H_    0.070684 0.638492 0.490172 0.143987
H63   H     H_    0.154939 0.671404 0.554100 0.128819
C66   C     C_3   0.071002 0.670508 0.682645 -0.826133
H64   H     H_    0.107072 0.670785 0.767930 0.258588
H65   H     H_    0.054519 0.726893 0.658625 0.202202
H66   H     H_    0.023483 0.638646 0.702766 0.248395
C67   C     C_3   0.909814 0.576634 0.195222 -0.394733
C68   C     C_3   0.883202 0.527604 0.088470 -0.332486
C69   C     C_3   0.836532 0.569463 0.991501 -0.922404
H67   H     H_    0.790384 0.593492 0.036704 0.268547
H68   H     H_    0.867033 0.613081 0.947545 0.261860
H69   H     H_    0.816886 0.532474 0.916681 0.256241
H70   H     H_    0.928744 0.503785 0.041140 0.215217
H71   H     H_    0.852123 0.482925 0.127143 0.239631
H72   H     H_    0.864266 0.601900 0.239952 0.202039
H73   H     H_    0.937800 0.622902 0.154870 0.208315
C70   C     C_3   0.067828 0.575658 0.188201 -0.371130
C71   C     C_3   0.078824 0.655273 0.221025 -0.361762
C72   C     C_3   0.098207 0.699109 0.105652 -0.905262
H74   H     H_    0.146143 0.676029 0.064768 0.267193
H75   H     H_    0.054020 0.699074 0.033353 0.262220
H76   H     H_    0.108848 0.755771 0.133040 0.246626
H77   H     H_    0.030514 0.679224 0.259140 0.215150
H78   H     H_    0.122007 0.659168 0.294493 0.206761
H79   H     H_    0.119727 0.550979 0.170607 0.199913
H80   H     H_    0.037642 0.570450 0.096925 0.207274
O13   O     O_3   0.077333 0.408953 0.557122 -0.584846
C73   C     C_3   0.087825 0.339709 0.506862 0.131672
H81   H     H_    0.109743 0.342833 0.411643 0.123625
H82   H     H_    0.037291 0.309677 0.500952 0.173181
C74   C     C_3   0.140276 0.297775 0.592761 -0.823006
H83   H     H_    0.119736 0.292601 0.688358 0.257930
H84   H     H_    0.148804 0.242964 0.554690 0.197180
H85   H     H_    0.191490 0.326322 0.598963 0.263103
O14   O     O_3   0.931712 0.407334 0.559751 -0.583608
C75   C     C_3   0.931842 0.442031 0.677201 0.143387
H86   H     H_    0.910452 0.498235 0.668156 0.126196
H87   H     H_    0.986157 0.443463 0.721151 0.189078
C76   C     C_3   0.885515 0.399821 0.764006 -0.846243
H88   H     H_    0.904652 0.343054 0.773558 0.262862
H89   H     H_    0.887246 0.424521 0.858491 0.203522
H90   H     H_    0.830123 0.400350 0.725208 0.260847

loop_
_geom_bond_atom_site_label_1
_geom_bond_atom_site_label_2
_ccdc_geom_bond_type
C31   N2    A    
C55   H40   S    
C26   C32   S    
C51   C52   S    
C60   H56   S    
C1    C8    S    
O13   C73   S    
C56   H36   S    
C53   H29   S    
C72   H76   S    
C63   C64   S    
C58   C59   S    
C53   H31   S    
C60   C61   S    
C4    C46   A    
C76   H88   S    
O2    Zn1   S    
C22   C35   S    
C64   H60   S    
C9    C67   S    
O8    Zn2   S    
C35   C37   A    
C24   C26   A    
C20   H5    S    
C2    O2    A    
O10   C49   S    
C55   H39   S    
C49   H25   S    
C74   H85   S    
C29   H8    S    
C59   H43   S    
C15   N1    A    
C4    H16   S    
C70   H80   S    
C5    H17   S    
O3    Zn2   S    
C54   H41   S    
C18   C19   A    
C69   H69   S    
C6    H18   S    
C43   O11   S    
C2    C7    S    
C72   H75   S    
O12   C65   S    
C39   H9    S    
C57   H49   S    
C20   C24   A    
C7    C41   A    
C70   H79   S    
C44   O12   S    
C40   H10   S    
C62   H52   S    
C69   H67   S    
C71   H78   S    
C50   H27   S    
C19   C27   S    
C9    C10   A    
C38   H2    S    
C58   H46   S    
C3    H15   S    
C62   H50   S    
C21   C27   A    
C15   O9    S    
C68   H71   S    
C13   C14   A    
C41   C43   A    
C65   C66   S    
C42   C44   A    
O6    Zn1   S    
C55   C56   S    
C66   H65   S    
C44   C46   A    
C75   H86   S    
C74   H84   S    
C64   H61   S    
C33   C40   S    
C40   H12   S    
C34   C39   S    
C14   O14   S    
C28   C32   A    
C41   H13   S    
C4    C6    A    
C76   H89   S    
C17   H3    S    
C39   C40   S    
C5    C7    A    
C51   H34   S    
C47   H19   S    
C25   C54   S    
C6    C8    A    
C59   H44   S    
C25   C26   A    
O9    C47   S    
C3    C45   A    
C48   H21   S    
C54   H42   S    
C37   C38   A    
C56   H37   S    
C75   H87   S    
C70   C71   S    
C24   C51   S    
C52   H33   S    
C59   H45   S    
N2    Zn2   S    
C33   C34   A    
C47   H20   S    
C61   H54   S    
C56   H38   S    
C50   H28   S    
C43   C45   A    
C30   N2    A    
C12   C14   A    
C23   C36   S    
C68   H70   S    
O4    Zn2   S    
C16   O10   S    
O7    Zn2   S    
C65   H63   S    
C37   H1    S    
C23   O8    A    
C42   H14   S    
C22   O5    A    
C48   H23   S    
C66   H66   S    
C18   H4    S    
C57   C58   S    
C67   H73   S    
C76   H90   S    
C15   C17   A    
C21   C25   A    
C60   H55   S    
C49   H24   S    
C23   O6    A    
C66   H64   S    
C8    C42   A    
C12   C45   S    
C3    C5    A    
C49   C50   S    
C51   H35   S    
C48   H22   S    
C63   H58   S    
C28   H7    S    
C53   H30   S    
C63   H57   S    
C1    O1    A    
C20   C27   A    
C29   C32   A    
C57   H48   S    
C64   H59   S    
N1    Zn1   S    
C71   C72   S    
C71   H77   S    
C31   C60   S    
C28   C30   A    
C29   C31   A    
C72   H74   S    
C67   C68   S    
O5    Zn1   S    
C11   C13   A    
C47   C48   S    
O11   C63   S    
C73   H82   S    
C52   H32   S    
C36   C38   A    
C33   C35   A    
C13   O13   S    
C61   H53   S    
C34   C36   A    
C69   H68   S    
C52   C53   S    
C9    C12   A    
C1    O3    A    
C75   C76   S    
C10   C11   A    
C74   H83   S    
C17   C19   A    
O1    Zn1   S    
C16   C18   A    
O14   C75   S    
C73   H81   S    
C54   C55   S    
C62   H51   S    
C65   H62   S    
C61   C62   S    
C11   C46   S    
C16   N1    A    
C22   O7    A    
C50   H26   S    
C2    O4    A    
C67   H72   S    
C10   C70   S    
C73   C74   S    
C21   H6    S    
C58   H47   S    
C68   C69   S    
C30   C57   S    
C39   H11   S    
