data_mof_unit_pretest_1725.cif
_audit_creation_date              2012-12-10T17:54:08-0500
_audit_creation_method            fapswitch 2.2
_symmetry_space_group_name_H-M    P1
_symmetry_Int_Tables_number       1
_space_group_crystal_system       triclinic
_cell_length_a                    18.736211
_cell_length_b                    18.702995
_cell_length_c                    18.987768
_cell_angle_alpha                 109.582626
_cell_angle_beta                  109.166955
_cell_angle_gamma                 109.075807
_cell_volume                      5158.82862617

loop_
_atom_site_label
_atom_site_type_symbol
_atom_type_description
_atom_site_fract_x
_atom_site_fract_y
_atom_site_fract_z
_atom_type_partial_charge
Br1   Br    Br    0.292634 0.641158 0.483777 -0.529807
Br2   Br    Br    0.570479 0.091010 0.332856 -0.410937
Br3   Br    Br    0.700980 0.249711 0.325784 -0.484597
C1    C     C_R   0.880694 0.381100 0.999424 0.787031
C2    C     C_R   0.183952 0.498021 0.182639 -0.070709
C3    C     C_R   0.200370 0.427120 0.163182 -0.189455
C4    C     C_R   0.882656 0.501686 0.882582 0.710981
C5    C     C_R   0.264469 0.426990 0.227947 -0.206423
C6    C     C_R   0.313701 0.498440 0.312025 -0.058302
C7    C     C_R   0.296472 0.566938 0.328129 0.085433
C8    C     C_3   0.320097 0.652512 0.396650 0.038732
C9    C     C_3   0.248568 0.652054 0.326552 -0.412272
C10   C     C_R   0.270680 0.727817 0.063656 0.009940
C11   C     C_R   0.184791 0.683723 0.998674 -0.088768
C12   C     C_R   0.814740 0.313290 0.999002 -0.004513
C13   C     C_R   0.165656 0.694531 0.926276 -0.201464
C14   C     C_R   0.230164 0.758312 0.925582 -0.169810
C15   C     C_R   0.314726 0.810102 0.996539 -0.101813
C16   C     C_R   0.118577 0.618571 0.999898 0.833920
C17   C     C_R   0.334804 0.789741 0.062343 -0.091174
C18   C     C_3   0.382426 0.847670 0.158065 0.170844
C19   C     C_3   0.311075 0.778985 0.159388 0.647934
C20   C     C_R   0.497125 0.381182 0.378618 0.781045
C21   C     C_R   0.614442 0.495797 0.610990 0.813940
C22   C     C_R   0.496601 0.618645 0.615395 0.834615
C23   C     C_R   0.745928 0.239273 0.920871 -0.190811
C24   C     C_R   0.379104 0.499896 0.379012 0.818064
C25   C     C_R   0.501380 0.881687 0.882471 0.788152
C26   C     C_R   0.618793 0.118592 0.999885 0.776437
C27   C     C_R   0.499717 0.119713 0.117838 0.790445
C28   C     C_R   0.117937 0.499453 0.117638 0.811716
C29   C     C_R   0.381103 0.880626 0.999670 0.796047
C30   C     C_R   0.512653 0.251483 0.324739 0.021232
C31   C     C_R   0.494722 0.313756 0.311088 -0.029557
C32   C     C_R   0.468199 0.306137 0.229486 -0.192288
C33   C     C_R   0.467923 0.241195 0.165180 -0.164685
C34   C     C_R   0.680932 0.175021 0.920655 -0.191708
C35   C     C_R   0.497024 0.185554 0.183197 -0.094572
C36   C     C_R   0.516703 0.190365 0.262934 0.048837
C37   C     C_3   0.594281 0.198353 0.329153 0.494040
C38   C     C_3   0.587916 0.264004 0.397017 -0.519821
C39   C     C_R   0.519153 0.766601 0.693172 0.064153
C40   C     C_2   0.760496 0.516191 0.687431 -0.115239
C41   C     C_R   0.498954 0.684754 0.684429 -0.045355
C42   C     C_R   0.480981 0.668545 0.745979 -0.175023
C43   C     C_R   0.483828 0.734050 0.813004 -0.184889
C44   C     C_R   0.502185 0.815254 0.817475 -0.075797
C45   C     C_R   0.686222 0.183005 0.998691 -0.010254
C46   C     C_R   0.518943 0.828158 0.755684 0.028416
C47   C     C_3   0.541061 0.892079 0.725300 0.218361
C48   C     C_3   0.540705 0.821316 0.653455 -0.478305
C49   C     C_2   0.677304 0.483775 0.668286 -0.226028
C50   C     C_2   0.820773 0.503443 0.748688 -0.179182
C51   C     C_2   0.817933 0.508426 0.820036 0.270413
C52   C     C_R   0.822946 0.315713 0.075635 -0.018315
C53   C     C_R   0.760669 0.250814 0.075433 -0.028751
C54   C     C_3   0.771034 0.313195 0.157056 0.188225
C55   C     C_3   0.839563 0.385140 0.156807 0.252115
C56   C     C_R   0.233876 0.566308 0.266760 0.087423
Cu1   Cu    Cu3+1 0.999590 0.561790 0.061400 1.033846
Cu2   Cu    Cu3+1 0.000410 0.438210 0.938600 0.979449
Cu3   Cu    Cu3+1 0.558560 0.561730 0.496790 0.982761
Cu4   Cu    Cu3+1 0.434970 0.438120 0.496790 1.003988
Cu5   Cu    Cu3+1 0.438600 0.999980 0.938570 1.005936
Cu6   Cu    Cu3+1 0.561400 0.999920 0.061330 1.057890
H1    H     H_    0.784211 0.550053 0.656527 0.159476
H2    H     H_    0.652200 0.441871 0.692239 0.196556
H3    H     H_    0.384343 0.911676 0.178043 0.140213
H4    H     H_    0.449277 0.351049 0.216142 0.143541
H5    H     H_    0.448836 0.237140 0.102991 0.170860
H6    H     H_    0.567929 0.240402 0.437519 0.214580
H7    H     H_    0.643645 0.331341 0.433486 0.206820
H8    H     H_    0.465659 0.606098 0.742838 0.164120
H9    H     H_    0.871801 0.495589 0.737740 0.123696
H10   H     H_    0.469987 0.720753 0.859739 0.153293
H11   H     H_    0.605564 0.951211 0.772016 0.124709
H12   H     H_    0.906630 0.416587 0.210625 0.053455
H13   H     H_    0.487396 0.794022 0.587824 0.225174
H14   H     H_    0.605867 0.838750 0.659358 0.181901
H15   H     H_    0.740313 0.233250 0.860272 0.159066
H16   H     H_    0.626242 0.120214 0.860027 0.172188
H17   H     H_    0.797476 0.302019 0.211687 0.108575
H18   H     H_    0.462168 0.799593 0.169145 0.356111
H19   H     H_    0.373195 0.776898 0.261620 0.352975
H20   H     H_    0.240503 0.836929 0.155715 0.298523
H21   H     H_    0.418368 0.855997 0.656777 0.368275
H22   H     H_    0.763405 0.526830 0.891042 0.339372
H23   H     H_    0.163345 0.371715 0.098840 0.166485
H24   H     H_    0.659437 0.275130 0.151531 0.328508
H25   H     H_    0.828635 0.487694 0.200045 0.343291
H26   H     H_    0.275860 0.371947 0.212423 0.141289
H27   H     H_    0.386821 0.703927 0.421295 0.138712
H28   H     H_    0.191657 0.646027 0.335668 0.231532
H29   H     H_    0.273966 0.703020 0.310092 0.210293
H30   H     H_    0.100332 0.656429 0.872217 0.142353
H31   H     H_    0.213310 0.768588 0.870902 0.169189
O1    O     O_R   0.909480 0.462010 0.051860 -0.541286
O2    O     O_R   0.552410 0.909770 0.962140 -0.589322
O3    O     O_R   0.538310 0.090150 0.948110 -0.567380
O4    O     O_R   0.910180 0.357650 0.948150 -0.598038
O5    O     O_R   0.642020 0.090090 0.051780 -0.586986
O6    O     O_R   0.447590 0.090130 0.037760 -0.594318
O7    O     O_R   0.551300 0.090080 0.141420 -0.533116
O8    O     O_R   0.357980 0.909810 0.948120 -0.597229
O9    O     O_R   0.461690 0.909750 0.051790 -0.543312
O10   O     O_R   0.910060 0.552180 0.962250 -0.575993
O11   O     O_R   0.910760 0.447820 0.858550 -0.593730
O12   O     O_R   0.445180 0.357580 0.407200 -0.583107
O13   O     O_R   0.089820 0.642350 0.051850 -0.551855
O14   O     O_R   0.090520 0.537990 0.948140 -0.583375
O15   O     O_R   0.089240 0.552180 0.141450 -0.576226
O16   O     O_R   0.089940 0.447820 0.037750 -0.592143
O17   O     O_R   0.549550 0.461960 0.407200 -0.580720
O18   O     O_3   0.465129 0.856406 0.198531 -0.641196
O19   O     O_3   0.338993 0.734794 0.199080 -0.714858
O20   O     O_3   0.259705 0.807997 0.187369 -0.714916
O21   O     O_3   0.474409 0.911401 0.695101 -0.680316
O22   O     O_3   0.762121 0.532917 0.840814 -0.719793
O23   O     O_R   0.638540 0.552110 0.586390 -0.580382
O24   O     O_3   0.696434 0.321029 0.144496 -0.649545
O25   O     O_3   0.813920 0.443949 0.142893 -0.628653
O26   O     O_R   0.534170 0.447730 0.586390 -0.587398
O27   O     O_R   0.548350 0.642270 0.586380 -0.587060
O28   O     O_R   0.443970 0.537890 0.586380 -0.573745
O29   O     O_R   0.459360 0.552110 0.407190 -0.589892
O30   O     O_R   0.354990 0.447740 0.407190 -0.564309
O31   O     O_R   0.448700 0.909820 0.858480 -0.556671

loop_
_geom_bond_atom_site_label_1
_geom_bond_atom_site_label_2
_ccdc_geom_bond_type
C21   C49   S    
C52   C53   A    
C25   C44   S    
C47   O21   S    
C32   C33   A    
Br1   C8    S    
Cu6   O5    S    
C34   H16   S    
Cu4   O28   S    
C44   C46   A    
C50   C51   D    
Cu5   O6    S    
C30   C36   A    
Cu6   O2    S    
C2    C3    A    
C24   O30   A    
C40   C49   D    
C3    H23   S    
C53   C54   S    
C27   C35   S    
C42   H8    S    
C31   C32   A    
C43   H10   S    
Cu1   O13   S    
C55   H12   S    
C9    C56   S    
C8    H27   S    
C40   C50   S    
Cu5   O3    S    
C50   H9    S    
C5    C6    A    
C55   O25   S    
C27   O7    A    
C28   O16   A    
C29   O8    A    
C10   C11   A    
C6    C7    A    
C15   C17   A    
C45   C53   A    
C25   O31   A    
C39   C48   S    
C38   H6    S    
Cu5   O31   S    
C19   O20   S    
C1    O1    A    
H18   O18   S    
C9    H29   S    
C39   C41   A    
Cu2   O14   S    
C22   C41   S    
Cu6   O9    S    
Cu3   O27   S    
C33   H5    S    
C14   C15   A    
C16   O13   A    
C26   O3    A    
C26   C45   S    
H22   O22   S    
Cu1   O1    S    
C36   C37   S    
C5    H26   S    
C2    C56   A    
C13   C14   A    
C12   C23   A    
C3    C5    A    
C47   C48   S    
C42   C43   A    
C23   H15   S    
Cu1   Cu2   S    
C12   C52   A    
Cu3   Cu4   S    
C47   H11   S    
C20   O17   A    
H24   O24   S    
C20   C31   S    
C27   O6    A    
C21   O26   A    
C30   C31   A    
C4    O10   A    
C26   O5    A    
C14   H31   S    
C34   C45   A    
C22   O27   A    
Cu3   O23   S    
C49   H2    S    
Cu3   O17   S    
C54   O24   S    
C37   C38   S    
Br3   C37   S    
H19   O19   S    
C29   O9    A    
C51   O22   S    
C18   H3    S    
H25   O25   S    
C4    O11   A    
C9    H28   S    
Cu2   O4    S    
C15   C29   S    
Cu6   O7    S    
Cu4   O26   S    
Cu1   O10   S    
C41   C42   A    
C6    C24   S    
C16   O14   A    
C25   O2    A    
Cu5   O8    S    
C43   C44   A    
C19   O19   S    
C13   H30   S    
C10   C17   A    
C11   C16   S    
H20   O20   S    
C18   O18   S    
Cu3   O29   S    
C8    C9    S    
C23   C34   A    
C21   O23   A    
C38   H7    S    
C30   C38   S    
Cu5   Cu6   S    
C1    C12   S    
C1    O4    A    
C7    C56   A    
C48   H13   S    
Cu1   O15   S    
C24   O29   A    
C54   C55   S    
C35   C36   A    
C40   H1    S    
C20   O12   A    
C33   C35   A    
C10   C19   S    
H21   O21   S    
C11   C13   A    
Cu2   O11   S    
C22   O28   A    
C48   H14   S    
Cu4   O30   S    
C7    C8    S    
C39   C46   A    
Br2   C37   S    
C17   C18   S    
C32   H4    S    
C46   C47   S    
C52   C55   S    
C28   O15   A    
C54   H17   S    
C4    C51   S    
Cu4   O12   S    
C18   C19   S    
Cu2   O16   S    
C2    C28   S    
