data_mof_unit_pretest_606.cif
_audit_creation_date              2012-12-11T14:40:52-0500
_audit_creation_method            fapswitch 2.2
_symmetry_space_group_name_H-M    P1
_symmetry_Int_Tables_number       1
_space_group_crystal_system       triclinic
_cell_length_a                    24.637217
_cell_length_b                    17.489046
_cell_length_c                    15.475871
_cell_angle_alpha                 89.788609
_cell_angle_beta                  129.255422
_cell_angle_gamma                 90.389782
_cell_volume                      5163.33520034

loop_
_atom_site_label
_atom_site_type_symbol
_atom_type_description
_atom_site_fract_x
_atom_site_fract_y
_atom_site_fract_z
_atom_type_partial_charge
C1    C     C_R   0.351712 0.358029 0.244647 -0.118184
C2    C     C_R   0.645618 0.681389 0.500334 -0.189074
C3    C     C_3   0.339546 0.679702 0.695663 -0.405533
C4    C     C_3   0.396767 0.688482 0.822621 -0.276873
C5    C     C_3   0.398482 0.619769 0.885203 -0.802536
C6    C     C_3   0.757495 0.929432 0.624284 -0.401435
C7    C     C_3   0.784698 0.944316 0.743681 -0.239809
C8    C     C_3   0.748715 0.013174 0.747704 -0.940945
C9    C     C_3   0.840495 0.184113 0.706013 -0.407406
C10   C     C_3   0.899947 0.197978 0.831280 -0.281741
C11   C     C_3   0.897854 0.140125 0.903105 -0.809356
C12   C     C_R   0.183697 0.881372 0.501249 -0.134957
C13   C     C_R   0.153027 0.173528 0.500431 -0.177709
C14   C     C_R   0.317987 0.387308 0.502668 -0.003531
C15   C     C_R   0.353050 0.674356 0.504706 0.028885
C16   C     C_R   0.817285 0.887501 0.502033 -0.028451
C17   C     C_R   0.845565 0.164711 0.506931 0.033153
C18   C     C_3   0.274102 0.349284 0.606589 0.003847
C19   C     C_3   0.340926 0.748597 0.631777 0.027167
C20   C     C_3   0.777458 0.848517 0.612234 -0.000912
C21   C     C_R   0.334222 0.609275 0.199649 -0.115894
C22   C     C_3   0.839828 0.247860 0.633829 0.020471
C23   C     C_3   0.733176 0.785741 0.613254 -0.566905
C24   C     C_3   0.800136 0.317969 0.627139 -0.578290
C25   C     C_3   0.232608 0.283586 0.608985 -0.570978
C26   C     C_3   0.299005 0.815391 0.627114 -0.578986
C27   C     C_3   0.194690 0.342075 0.394144 -0.426828
C28   C     C_3   0.235356 0.697818 0.442718 -0.398579
C29   C     C_3   0.691702 0.851725 0.399610 -0.430316
C30   C     C_3   0.730735 0.192217 0.452483 -0.404564
C31   C     C_3   0.299171 0.254390 0.511650 -0.583656
C32   C     C_R   0.851681 0.858021 0.244596 -0.115854
C33   C     C_3   0.308256 0.805277 0.452371 -0.613163
C34   C     C_3   0.790036 0.755572 0.500435 -0.567341
C35   C     C_3   0.801779 0.294486 0.446800 -0.611488
C36   C     C_3   0.271635 0.336067 0.503922 0.262753
C37   C     C_3   0.310809 0.730119 0.509056 0.256060
C38   C     C_3   0.769409 0.838612 0.503849 0.260283
C39   C     C_3   0.805636 0.223128 0.511268 0.263931
C40   C     C_3   0.688944 0.740319 0.501514 0.210155
C41   C     C_3   0.730446 0.328822 0.505204 0.188749
C42   C     C_3   0.194870 0.233527 0.501889 0.211228
C43   C     C_R   0.846593 0.135444 0.230551 -0.113120
C44   C     C_3   0.231607 0.829774 0.504362 0.185696
C45   C     C_3   0.643813 0.799426 0.405506 -0.328000
C46   C     C_3   0.689634 0.251367 0.461708 -0.359855
C47   C     C_3   0.148111 0.287904 0.399844 -0.347050
C48   C     C_3   0.191684 0.752675 0.452187 -0.364511
C49   C     C_R   0.666438 0.390285 0.797829 -0.237938
C50   C     C_R   0.668008 0.605159 0.802006 -0.242696
C51   C     C_R   0.150746 0.861807 0.757784 -0.230879
C52   C     C_R   0.167747 0.106263 0.801179 -0.238282
C53   C     C_3   0.739361 0.698356 0.490052 0.703978
C54   C     C_R   0.646184 0.369487 0.860332 -0.069479
C55   C     C_3   0.750818 0.353692 0.432698 0.756234
C56   C     C_3   0.250470 0.194085 0.500849 0.729709
C57   C     C_3   0.255604 0.861516 0.439484 0.761522
C58   C     C_2   0.692300 0.340542 0.974496 -0.070566
C59   C     C_2   0.695315 0.649988 0.982163 -0.085142
C60   C     C_2   0.144509 0.748083 0.853875 -0.114105
C61   C     C_2   0.194834 0.151878 0.980827 -0.089679
C62   C     C_2   0.761755 0.341616 0.033586 -0.128211
C63   C     C_2   0.764805 0.652944 0.040888 -0.130690
C64   C     C_2   0.196352 0.709680 0.867881 -0.143135
C65   C     C_R   0.648731 0.623647 0.866094 -0.047884
C66   C     C_2   0.264387 0.153822 0.040088 -0.126693
C67   C     C_2   0.307669 0.656560 0.021100 -0.213923
C68   C     C_2   0.359539 0.243512 0.152211 -0.218149
C69   C     C_2   0.850210 0.245165 0.127768 -0.221500
C70   C     C_2   0.859488 0.743416 0.152194 -0.216620
C71   C     C_2   0.238097 0.657230 0.961548 -0.111063
C72   C     C_2   0.306301 0.205368 0.135258 -0.101662
C73   C     C_2   0.803775 0.287476 0.123949 -0.112997
C74   C     C_2   0.806395 0.705066 0.135493 -0.102752
C75   C     C_R   0.616278 0.398921 0.408985 0.753848
C76   C     C_R   0.118884 0.819799 0.791242 -0.049215
C77   C     C_R   0.592963 0.639578 0.407352 0.805992
C78   C     C_R   0.115727 0.897262 0.408629 0.760315
C79   C     C_R   0.100260 0.132160 0.407623 0.765509
C80   C     C_R   0.386680 0.400543 0.593940 -0.115374
C81   C     C_R   0.410984 0.637896 0.595579 -0.177620
C82   C     C_R   0.885754 0.901821 0.593186 -0.043479
C83   C     C_R   0.906146 0.132002 0.597103 -0.183624
C84   C     C_R   0.689674 0.401691 0.593050 -0.258162
C85   C     C_R   0.666905 0.639472 0.593395 -0.261562
C86   C     C_R   0.189544 0.900793 0.592667 -0.276125
C87   C     C_R   0.148311 0.125260 0.864937 -0.042693
C88   C     C_R   0.171067 0.135536 0.593820 -0.250566
C89   C     C_R   0.311909 0.400849 0.409317 -0.134988
C90   C     C_R   0.331862 0.636882 0.408885 -0.129996
C91   C     C_R   0.811798 0.900012 0.408988 -0.135997
C92   C     C_R   0.825271 0.128893 0.410757 -0.136041
C93   C     C_R   0.576617 0.390027 0.800179 0.732605
C94   C     C_R   0.578556 0.604935 0.804143 0.688695
C95   C     C_R   0.060863 0.860763 0.760349 0.736906
C96   C     C_R   0.078281 0.105920 0.803473 0.679578
C97   C     C_R   0.442781 0.357133 0.243799 -0.140562
C98   C     C_R   0.684525 0.383774 0.501764 -0.143000
C99   C     C_R   0.423482 0.608568 0.196411 -0.079167
C100  C     C_R   0.942692 0.857123 0.243684 -0.137237
C101  C     C_R   0.936845 0.136506 0.228755 -0.163545
C102  C     C_R   0.384611 0.315796 0.213643 0.125911
C103  C     C_R   0.353837 0.628524 0.136102 0.109341
C104  C     C_R   0.884527 0.815776 0.213534 0.122759
C105  C     C_R   0.877048 0.175165 0.193372 0.126549
C106  C     C_3   0.246281 0.428832 0.606004 -0.390535
C107  C     C_3   0.266134 0.448369 0.719732 -0.246281
C108  C     C_3   0.224383 0.516517 0.710548 -0.936851
F1    F     F_    0.702490 0.661086 0.388102 -0.645933
F2    F     F_    0.545486 0.595185 0.847659 -0.702939
F3    F     F_    0.018052 0.841109 0.783463 -0.729042
F4    F     F_    0.045471 0.096415 0.847430 -0.719544
F5    F     F_    0.692829 0.357881 0.320746 -0.624690
F6    F     F_    0.219170 0.153057 0.403036 -0.638123
F7    F     F_    0.199514 0.870275 0.327107 -0.617527
F8    F     F_    0.590192 0.402430 0.301452 -0.646792
F9    F     F_    0.566631 0.649625 0.300491 -0.702994
F10   F     F_    0.089882 0.900250 0.301161 -0.646129
F11   F     F_    0.084931 0.130435 0.306741 -0.678356
F12   F     F_    0.541931 0.393657 0.841492 -0.694314
H1    H     H_    0.304368 0.343984 0.231865 0.094444
H2    H     H_    0.833529 0.370104 0.654144 0.148925
H3    H     H_    0.780107 0.973874 0.603556 0.173204
H4    H     H_    0.699565 0.935925 0.564466 0.208258
H5    H     H_    0.848261 0.145758 0.890074 0.238546
H6    H     H_    0.902331 0.081099 0.882149 0.278846
H7    H     H_    0.942383 0.150968 0.992569 0.264861
H8    H     H_    0.951395 0.193641 0.849867 0.239202
H9    H     H_    0.895772 0.256336 0.854686 0.190645
H10   H     H_    0.789576 0.182785 0.689511 0.196508
H11   H     H_    0.845949 0.125984 0.684248 0.191820
H12   H     H_    0.270546 0.248697 0.684745 0.149027
H13   H     H_    0.332127 0.868039 0.661205 0.149519
H14   H     H_    0.193192 0.305492 0.615935 0.204685
H15   H     H_    0.285908 0.802574 0.682343 0.196946
H16   H     H_    0.697645 0.809985 0.627266 0.205068
H17   H     H_    0.790539 0.310310 0.687535 0.200089
H18   H     H_    0.175111 0.401690 0.378800 0.151972
H19   H     H_    0.235396 0.640270 0.473708 0.151530
H20   H     H_    0.676674 0.912564 0.392893 0.154330
H21   H     H_    0.281813 0.607698 0.173131 0.089553
H22   H     H_    0.731753 0.137108 0.489675 0.150915
H23   H     H_    0.612816 0.834250 0.420438 0.145341
H24   H     H_    0.680411 0.230247 0.519432 0.153083
H25   H     H_    0.113226 0.321378 0.407839 0.144005
H26   H     H_    0.180067 0.726657 0.504714 0.150071
H27   H     H_    0.790185 0.747719 0.429151 0.219393
H28   H     H_    0.784418 0.278316 0.363132 0.212815
H29   H     H_    0.303737 0.245213 0.445233 0.220709
H30   H     H_    0.293018 0.793216 0.368956 0.222557
H31   H     H_    0.352614 0.246886 0.593174 0.135582
H32   H     H_    0.804323 0.843954 0.231738 0.095018
H33   H     H_    0.361291 0.832102 0.503939 0.135477
H34   H     H_    0.844197 0.743306 0.577933 0.150416
H35   H     H_    0.854842 0.320681 0.493606 0.135124
H36   H     H_    0.769982 0.654533 0.556903 -0.000347
H37   H     H_    0.776408 0.411020 0.459518 0.012991
H38   H     H_    0.281892 0.153345 0.571943 -0.009947
H39   H     H_    0.281054 0.918439 0.473340 0.015603
H40   H     H_    0.190989 0.324629 0.321508 0.187130
H41   H     H_    0.210202 0.691379 0.352925 0.184352
H42   H     H_    0.683614 0.837474 0.322195 0.185667
H43   H     H_    0.796083 0.145641 0.208240 0.090958
H44   H     H_    0.703250 0.181311 0.362591 0.184009
H45   H     H_    0.718508 0.389813 0.822916 0.131825
H46   H     H_    0.720570 0.602426 0.829388 0.129225
H47   H     H_    0.198159 0.848486 0.770856 0.137759
H48   H     H_    0.220282 0.104114 0.828386 0.129523
H49   H     H_    0.605879 0.772255 0.322792 0.244864
H50   H     H_    0.637277 0.257690 0.378129 0.200213
H51   H     H_    0.113605 0.257178 0.319245 0.238054
H52   H     H_    0.140544 0.760879 0.367446 0.207668
H53   H     H_    0.213497 0.630142 0.992255 0.129922
H54   H     H_    0.329313 0.344965 0.684678 0.125995
H55   H     H_    0.285853 0.222019 0.177240 0.140782
H56   H     H_    0.788351 0.273416 0.174189 0.139696
H57   H     H_    0.785900 0.721753 0.177391 0.139913
H58   H     H_    0.785999 0.370648 0.003538 0.130117
H59   H     H_    0.789238 0.628333 0.008852 0.129756
H60   H     H_    0.215836 0.726261 0.824204 0.135211
H61   H     H_    0.288824 0.128669 0.008364 0.130975
H62   H     H_    0.331569 0.684588 0.989626 0.140618
H63   H     H_    0.379286 0.226546 0.109151 0.138027
H64   H     H_    0.865047 0.259380 0.076699 0.136832
H65   H     H_    0.396063 0.768729 0.679137 0.111371
H66   H     H_    0.879303 0.726394 0.109257 0.137236
H67   H     H_    0.668854 0.310696 0.005555 0.162220
H68   H     H_    0.671616 0.675370 0.015199 0.159604
H69   H     H_    0.125857 0.731143 0.898768 0.164477
H70   H     H_    0.171152 0.177787 0.013585 0.159244
H71   H     H_    0.409830 0.399470 0.680880 0.166445
H72   H     H_    0.441485 0.651497 0.682631 0.164745
H73   H     H_    0.907037 0.905652 0.679072 0.163704
H74   H     H_    0.936415 0.144455 0.684396 0.170116
H75   H     H_    0.736130 0.407104 0.679287 0.140724
H76   H     H_    0.833093 0.838259 0.686248 0.134495
H77   H     H_    0.709849 0.651078 0.679974 0.146113
H78   H     H_    0.236569 0.906207 0.678510 0.144506
H79   H     H_    0.214253 0.146692 0.680490 0.140599
H80   H     H_    0.264742 0.401377 0.323193 0.092354
H81   H     H_    0.287185 0.648834 0.323258 0.100631
H82   H     H_    0.764717 0.899519 0.322790 0.096543
H83   H     H_    0.777106 0.136418 0.326827 0.092211
H84   H     H_    0.479177 0.340393 0.230730 0.167386
H85   H     H_    0.450325 0.604320 0.162230 0.181986
H86   H     H_    0.978969 0.840343 0.230412 0.166060
H87   H     H_    0.894810 0.266366 0.675982 0.114707
H88   H     H_    0.968217 0.149748 0.204624 0.181031
H89   H     H_    0.232058 0.566617 0.675177 0.257035
H90   H     H_    0.167659 0.502006 0.655900 0.263308
H91   H     H_    0.242021 0.531659 0.794494 0.260477
H92   H     H_    0.255823 0.399121 0.753098 0.205849
H93   H     H_    0.323034 0.461855 0.780335 0.205987
H94   H     H_    0.268457 0.474029 0.585471 0.175175
H95   H     H_    0.188320 0.430183 0.540533 0.205683
H96   H     H_    0.347302 0.612940 0.866815 0.237630
H97   H     H_    0.410623 0.566979 0.860836 0.282722
H98   H     H_    0.770147 0.747122 0.684626 0.149487
H99   H     H_    0.439752 0.628535 0.976412 0.264974
H100  H     H_    0.448971 0.694155 0.843902 0.236602
H101  H     H_    0.387206 0.740901 0.851501 0.189509
H102  H     H_    0.287684 0.675569 0.675692 0.190407
H103  H     H_    0.345730 0.623784 0.669618 0.197847
H104  H     H_    0.754900 0.064094 0.711783 0.262136
H105  H     H_    0.691949 0.001143 0.699575 0.261874
H106  H     H_    0.772339 0.025437 0.835571 0.261356
H107  H     H_    0.775170 0.894026 0.776606 0.206900
H108  H     H_    0.842189 0.954713 0.799198 0.206181
N1    N     N_R   0.389430 0.421450 0.294590 -0.052708
N2    N     N_R   0.581780 0.577610 0.443390 -0.110482
N3    N     N_R   0.081780 0.922390 0.443390 -0.122511
N4    N     N_R   0.081780 0.077610 0.443390 -0.108175
N5    N     N_R   0.419850 0.423100 0.556610 -0.042129
N6    N     N_R   0.419850 0.576900 0.556610 -0.034029
N7    N     N_R   0.919850 0.923100 0.556610 -0.046616
N8    N     N_R   0.919850 0.076900 0.556610 -0.038066
N9    N     N_R   0.627410 0.423100 0.556610 -0.067981
N10   N     N_R   0.627410 0.576900 0.556610 -0.065199
N11   N     N_R   0.127410 0.923100 0.556610 -0.067664
N12   N     N_R   0.389430 0.578550 0.294590 -0.056938
N13   N     N_R   0.127410 0.076900 0.556610 -0.062906
N14   N     N_R   0.374220 0.422390 0.443390 -0.045117
N15   N     N_R   0.374220 0.577610 0.443390 -0.042293
N16   N     N_R   0.874220 0.922390 0.443390 -0.048308
N17   N     N_R   0.874220 0.077610 0.443390 -0.040437
N18   N     N_R   0.555000 0.424040 0.705410 -0.117144
N19   N     N_R   0.555000 0.575960 0.705410 -0.113094
N20   N     N_R   0.055000 0.924040 0.705410 -0.113665
N21   N     N_R   0.055000 0.075960 0.705410 -0.112290
N22   N     N_R   0.446630 0.421450 0.294590 -0.046001
N23   N     N_R   0.889430 0.921450 0.294590 -0.053334
N24   N     N_R   0.446630 0.578550 0.294590 -0.062671
N25   N     N_R   0.946630 0.921450 0.294590 -0.043979
N26   N     N_R   0.946630 0.078550 0.294590 -0.049408
N27   N     N_R   0.889430 0.078550 0.294590 -0.051941
N28   N     N_R   0.612200 0.424040 0.705410 -0.070749
N29   N     N_R   0.612200 0.575960 0.705410 -0.067422
N30   N     N_R   0.112200 0.924040 0.705410 -0.071655
N31   N     N_R   0.112200 0.075960 0.705410 -0.067452
N32   N     N_R   0.581780 0.422390 0.443390 -0.123598
Ni1   Ni    Ni4+2 0.382890 0.500000 0.370170 0.191969
Ni2   Ni    Ni4+2 0.882890 0.000000 0.370170 0.195785
Ni3   Ni    Ni4+2 0.618740 0.500000 0.629830 0.180170
Ni4   Ni    Ni4+2 0.118740 0.000000 0.629830 0.185147
Ni5   Ni    Ni4+2 0.514090 0.500000 0.370170 0.295604
Ni6   Ni    Ni4+2 0.014090 0.000000 0.370170 0.307782
Ni7   Ni    Ni4+2 0.487550 0.500000 0.629830 0.285643
Ni8   Ni    Ni4+2 0.987550 0.000000 0.629830 0.273382

loop_
_geom_bond_atom_site_label_1
_geom_bond_atom_site_label_2
_ccdc_geom_bond_type
C89   N14   A    
C58   C62   D    
C99   C103  A    
C47   H25   S    
C68   H63   S    
C80   N5    A    
C75   N32   A    
N9    Ni3   S    
C4    H101  S    
N29   Ni3   S    
C51   H47   S    
C84   N9    A    
C30   H44   S    
N12   Ni1   S    
C69   C105  S    
N23   Ni2   S    
C13   C79   A    
C108  H89   S    
C26   C44   S    
C7    C8    S    
C15   C81   A    
C2    C77   A    
C9    H10   S    
C22   H87   S    
C49   H45   S    
C106  H95   S    
C17   C92   A    
C32   N23   A    
C77   N2    A    
C7    H107  S    
C23   H16   S    
C99   H85   S    
C31   H29   S    
C6    H3    S    
C88   H79   S    
C67   H62   S    
C35   H35   S    
C77   F9    S    
C33   H30   S    
C76   C95   A    
C14   C36   S    
C64   H60   S    
C33   H33   S    
C9    C22   S    
N23   N25   A    
C7    H108  S    
C84   H75   S    
C43   N27   A    
C49   C54   A    
C100  C104  A    
C63   H59   S    
C2    C85   A    
N3    N11   A    
C85   N10   A    
C17   C39   S    
C72   H55   S    
C29   H20   S    
C19   C26   S    
C15   C37   S    
C82   H73   S    
C56   H38   S    
C26   H15   S    
C19   C37   S    
C42   C56   S    
C48   H52   S    
C61   C66   D    
C66   C72   S    
N4    Ni6   S    
C60   H69   S    
C4    H100  S    
N13   Ni4   S    
C48   H26   S    
C29   C38   S    
C70   C74   D    
C97   C102  A    
C33   C57   S    
C41   C46   S    
C32   C104  A    
C62   C73   S    
C3    C19   S    
C93   F12   S    
C6    H4    S    
C31   C56   S    
C61   C87   S    
C94   N19   A    
C67   C71   D    
N1    N22   A    
C8    H104  S    
C68   C72   D    
N6    N15   A    
C42   C47   S    
C90   H81   S    
N19   Ni7   S    
C79   N4    A    
C34   H34   S    
C57   H39   S    
C23   H98   S    
C64   C71   S    
C34   C38   S    
C82   N7    A    
C92   N17   A    
C24   C41   S    
C28   C48   S    
N10   Ni3   S    
C28   H19   S    
C96   N21   A    
N21   N31   A    
C10   H8    S    
N17   Ni2   S    
N8    N17   A    
C9    C10   S    
C31   H31   S    
C13   C42   S    
N19   N29   A    
C30   C46   S    
C28   H41   S    
C9    H11   S    
C101  C105  A    
C40   C45   S    
C106  H94   S    
C5    H97   S    
C27   H18   S    
C35   C55   S    
N4    N13   A    
C11   H6    S    
C51   C76   A    
C57   F7    S    
N31   Ni4   S    
C93   N18   A    
C88   N13   A    
C49   N28   A    
C8    H106  S    
C99   N24   A    
C46   H24   S    
C107  H92   S    
C55   F5    S    
C27   H40   S    
C67   C103  S    
C5    H96   S    
C94   F2    S    
C75   C98   A    
C33   C37   S    
C3    C4    S    
C71   H53   S    
C53   F1    S    
C79   F11   S    
C17   C83   A    
C35   C39   S    
C18   C106  S    
C81   H72   S    
C50   H46   S    
N26   N27   A    
C101  H88   S    
C1    N1    A    
C95   N20   A    
N5    Ni7   S    
C20   C38   S    
C34   H27   S    
N24   Ni5   S    
C47   H51   S    
C32   H32   S    
C20   C23   S    
C43   C105  A    
C44   C57   S    
C107  C108  S    
C87   C96   A    
N9    N32   A    
C24   H2    S    
C86   N11   A    
C59   H68   S    
C91   N16   A    
C69   C73   D    
C25   H14   S    
C46   H50   S    
C6    C7    S    
C92   H83   S    
C16   C91   A    
N20   N30   A    
C11   H7    S    
C18   H54   S    
C85   H77   S    
C65   C94   A    
C50   N29   A    
C66   H61   S    
C86   H78   S    
N12   N24   A    
C3    H102  S    
C14   C80   A    
C61   H70   S    
N25   Ni6   S    
C80   H71   S    
C22   C24   S    
N11   Ni4   S    
N2    N10   A    
N16   Ni2   S    
N27   Ni2   S    
N18   Ni7   S    
C12   C78   A    
C108  H91   S    
N15   Ni1   S    
N21   Ni8   S    
C45   H23   S    
C53   H36   S    
C54   C58   S    
C27   C47   S    
N7    Ni8   S    
C81   N6    A    
C89   H80   S    
N26   Ni6   S    
C3    H103  S    
C78   F10   S    
C58   H67   S    
C41   C98   S    
C29   H42   S    
C51   N30   A    
C52   C87   A    
N30   Ni4   S    
C2    C40   S    
N22   Ni5   S    
C68   C102  S    
C4    C5    S    
C45   H49   S    
C25   C42   S    
C62   H58   S    
C108  H90   S    
C8    H105  S    
C40   C53   S    
C97   N22   A    
N20   Ni8   S    
C63   C74   S    
N1    Ni1   S    
C24   H17   S    
C6    C20   S    
C52   H48   S    
C59   C63   D    
C30   H22   S    
C12   C86   A    
C60   C64   D    
C27   C36   S    
C84   C98   A    
C83   H74   S    
C101  N26   A    
C78   N3    A    
C10   H9    S    
C54   C93   A    
N28   Ni3   S    
C107  H93   S    
C26   H13   S    
C18   C25   S    
C19   H65   S    
C15   C90   A    
C52   N31   A    
N6    Ni7   S    
C5    H99   S    
C74   H57   S    
N18   N28   A    
C28   C37   S    
C73   H56   S    
C41   C55   S    
C22   C39   S    
C13   C88   A    
C96   F4    S    
N14   Ni1   S    
C60   C76   S    
C30   C39   S    
C70   C104  S    
C35   H28   S    
C14   C89   A    
C50   C65   A    
C1    H1    S    
N7    N16   A    
C91   H82   S    
C100  H86   S    
C10   C11   S    
C70   H66   S    
C69   H64   S    
C21   H21   S    
C21   C103  A    
C44   C48   S    
N5    N14   A    
C55   H37   S    
C21   N12   A    
C11   H5    S    
C83   N8    A    
C34   C53   S    
C12   C44   S    
C16   C82   A    
C106  C107  S    
N3    Ni6   S    
C29   C45   S    
N8    Ni8   S    
C100  N25   A    
C56   F6    S    
C31   C36   S    
C95   F3    S    
C75   F8    S    
C97   H84   S    
N32   Ni5   S    
C90   N15   A    
C25   H12   S    
C18   C36   S    
C1    C102  A    
C20   H76   S    
C59   C65   S    
C23   C40   S    
C16   C38   S    
N2    Ni5   S    
C43   H43   S    
