data_mof_unit_pretest_252.cif
_audit_creation_date              2013-03-05T15:51:59-0500
_audit_creation_method            fapswitch 2.2
_symmetry_space_group_name_H-M    P1
_symmetry_Int_Tables_number       1
_space_group_crystal_system       triclinic
_cell_length_a                    23.121327
_cell_length_b                    7.357173
_cell_length_c                    15.193493
_cell_angle_alpha                 89.999888
_cell_angle_beta                  107.77907
_cell_angle_gamma                 90.001064
_cell_volume                      2461.09416325

loop_
_atom_site_label
_atom_site_type_symbol
_atom_site_description
_atom_site_fract_x
_atom_site_fract_y
_atom_site_fract_z
_atom_type_partial_charge
O1    O     O_R   0.711000 0.648610 0.341170 -0.584581
O2    O     O_R   0.289000 0.351390 0.658830 -0.584011
O3    O     O_R   0.789000 0.148610 0.158830 -0.584582
O4    O     O_R   0.211000 0.851390 0.841170 -0.584013
O5    O     O_R   0.829650 0.322030 0.336650 -0.583634
O6    O     O_R   0.170350 0.677970 0.663350 -0.580940
O7    O     O_R   0.670350 0.822030 0.163350 -0.583635
O8    O     O_R   0.329650 0.177970 0.836650 -0.580943
C1    C     C_R   0.854173 0.485798 0.356679 0.960540
C2    C     C_R   0.145827 0.514203 0.643321 0.960733
C3    C     C_R   0.645827 0.985796 0.143320 0.960542
C4    C     C_R   0.354173 0.014205 0.856679 0.960738
O9    O     O_R   0.713950 0.319280 0.352070 -0.586036
O10   O     O_R   0.286050 0.680720 0.647930 -0.586041
O11   O     O_R   0.786050 0.819280 0.147930 -0.586035
O12   O     O_R   0.213950 0.180720 0.852070 -0.586041
O13   O     O_R   0.672470 0.142870 0.174360 -0.580303
O14   O     O_R   0.327530 0.857130 0.825640 -0.583006
O15   O     O_R   0.827530 0.642870 0.325640 -0.580304
O16   O     O_R   0.172470 0.357130 0.674360 -0.583011
C5    C     C_R   0.701508 0.487299 0.375363 0.915237
C6    C     C_R   0.298516 0.512541 0.624671 0.914797
C7    C     C_R   0.798493 0.987301 0.124638 0.915238
C8    C     C_R   0.201483 0.012540 0.875328 0.914800
O17   O     O_3   0.736530 0.478650 0.191680 -0.285459
O18   O     O_3   0.263470 0.521350 0.808320 -0.285823
O19   O     O_3   0.763470 0.978650 0.308320 -0.285460
O20   O     O_3   0.236530 0.021350 0.691680 -0.285824
V1    V     V_3+5 0.752500 0.206170 0.260820 1.204624
V2    V     V_3+5 0.247500 0.793830 0.739180 1.204606
V3    V     V_3+5 0.747500 0.706170 0.239180 1.204626
V4    V     V_3+5 0.252500 0.293830 0.760820 1.204605
C9    C     C_R   0.827108 0.993378 0.051356 -0.121105
C10   C     C_R   0.172583 0.003062 0.948200 -0.120132
C11   C     C_R   0.672894 0.493369 0.448645 -0.121106
C12   C     C_R   0.327416 0.503062 0.551799 -0.120132
C13   C     C_R   0.818989 0.964598 0.888406 0.128807
C14   C     C_R   0.180774 0.964219 0.110691 0.130146
C15   C     C_R   0.681013 0.464581 0.611594 0.128810
C16   C     C_R   0.319223 0.464262 0.389305 0.130150
C17   C     C_R   0.792566 0.965252 0.960565 -0.163437
C18   C     C_R   0.207225 0.970958 0.038573 -0.164573
C19   C     C_R   0.707436 0.465257 0.539435 -0.163441
C20   C     C_R   0.292770 0.471023 0.461421 -0.164567
C21   C     C_R   0.889276 0.014979 0.073914 -0.207783
C22   C     C_R   0.110320 0.021534 0.925835 -0.207203
C23   C     C_R   0.610724 0.514934 0.426085 -0.207776
C24   C     C_R   0.389682 0.521446 0.574172 -0.207189
C25   C     C_R   0.919746 0.994442 0.006992 0.111566
C26   C     C_R   0.079944 0.996140 0.992514 0.111754
C27   C     C_R   0.580254 0.494382 0.493007 0.111564
C28   C     C_R   0.420056 0.496071 0.507489 0.111753
C29   C     C_R   0.884294 0.976412 0.911675 -0.101308
C30   C     C_R   0.115448 0.975034 0.087599 -0.101703
C31   C     C_R   0.615707 0.476361 0.588325 -0.101312
C32   C     C_R   0.384550 0.475042 0.412399 -0.101711
C33   C     C_R   0.984762 0.990419 0.033687 0.012858
C34   C     C_R   0.014947 0.991909 0.965825 0.012612
C35   C     C_R   0.515238 0.490352 0.466313 0.012855
C36   C     C_R   0.485054 0.491814 0.534177 0.012610
C37   C     C_R   0.979437 0.978032 0.872721 -0.263384
C38   C     C_R   0.020318 0.973691 0.126650 -0.263264
C39   C     C_R   0.520564 0.477914 0.627278 -0.263385
C40   C     C_R   0.479680 0.473681 0.373348 -0.263263
C41   C     C_R   0.916341 0.968557 0.845188 0.343483
C42   C     C_R   0.083424 0.964079 0.154041 0.343221
C43   C     C_R   0.583661 0.468481 0.654812 0.343483
C44   C     C_R   0.416573 0.464133 0.345955 0.343226
H1    H     H_    0.086891 0.057199 0.855098 0.113455
H2    H     H_    0.912584 0.046563 0.145205 0.114422
H3    H     H_    0.413114 0.557044 0.644916 0.113447
H4    H     H_    0.587418 0.546504 0.354792 0.114418
H5    H     H_    0.255499 0.955838 0.050965 0.118606
H6    H     H_    0.744384 0.947193 0.948006 0.119700
H7    H     H_    0.244494 0.455958 0.449026 0.118594
H8    H     H_    0.755620 0.447224 0.551994 0.119696
H9    H     H_    0.999578 0.962270 0.817930 0.169459
H10   H     H_    0.000255 0.956089 0.181397 0.169242
H11   H     H_    0.500425 0.462126 0.682069 0.169460
H12   H     H_    0.499739 0.456114 0.318595 0.169237
C45   C     C_1   0.416722 0.006973 0.918703 -0.255160
C46   C     C_1   0.583278 0.993042 0.081297 -0.254901
C47   C     C_1   0.083278 0.506968 0.581297 -0.255166
C48   C     C_1   0.916722 0.493048 0.418703 -0.254901
C49   C     C_1   0.469113 0.002415 0.969937 0.105953
C50   C     C_1   0.530888 0.997618 0.030063 0.106002
C51   C     C_1   0.030887 0.502412 0.530063 0.105951
C52   C     C_1   0.969112 0.497621 0.469937 0.106002
N1    N     N_R   0.887412 0.945939 0.748261 0.214369
O21   O     O_R   0.880913 0.087865 0.695127 -0.429712
O22   O     O_R   0.889847 0.787009 0.712168 -0.430165
N2    N     N_R   0.112394 0.939107 0.250800 0.214279
O23   O     O_R   0.109062 0.779985 0.286140 -0.430296
O24   O     O_R   0.119870 0.080185 0.304666 -0.429703
N3    N     N_R   0.612591 0.445916 0.751742 0.214372
O25   O     O_R   0.619084 0.587868 0.804857 -0.429712
O26   O     O_R   0.610163 0.287005 0.787856 -0.430168
N4    N     N_R   0.387599 0.439364 0.249183 0.214282
O27   O     O_R   0.390869 0.280278 0.213767 -0.430309
O28   O     O_R   0.380184 0.580531 0.195387 -0.429697
C53   C     C_3   0.777368 0.952763 0.788753 -0.448149
C54   C     C_3   0.708549 0.951940 0.774251 -0.298730
C55   C     C_3   0.672199 0.951849 0.671643 -0.798068
H13   H     H_    0.680773 0.077926 0.637673 0.254752
H14   H     H_    0.685124 0.834400 0.636078 0.256708
H15   H     H_    0.622922 0.943178 0.663720 0.267726
H16   H     H_    0.695999 0.830855 0.807365 0.243091
H17   H     H_    0.695779 0.072446 0.807543 0.247587
H18   H     H_    0.786641 0.070484 0.750539 0.235444
H19   H     H_    0.788162 0.828128 0.757077 0.230830
C56   C     C_3   0.222403 0.949558 0.210246 -0.449254
C57   C     C_3   0.291210 0.948142 0.224720 -0.298158
C58   C     C_3   0.327573 0.946208 0.327333 -0.796822
H20   H     H_    0.320119 0.073385 0.361474 0.253708
H21   H     H_    0.313625 0.830511 0.362828 0.256897
H22   H     H_    0.376756 0.933526 0.335234 0.267940
H23   H     H_    0.303477 0.827554 0.190833 0.243494
H24   H     H_    0.304202 0.069458 0.192275 0.247461
H25   H     H_    0.213318 0.066244 0.249362 0.237220
H26   H     H_    0.211445 0.823946 0.240978 0.229544
C59   C     C_3   0.722635 0.452751 0.711247 -0.448146
C60   C     C_3   0.791453 0.451952 0.725749 -0.298733
C61   C     C_3   0.827804 0.451871 0.828357 -0.798062
H27   H     H_    0.819227 0.577944 0.862325 0.254755
H28   H     H_    0.814881 0.334416 0.863922 0.256703
H29   H     H_    0.877081 0.443215 0.836279 0.267728
H30   H     H_    0.804007 0.330874 0.692635 0.243090
H31   H     H_    0.804220 0.572465 0.692457 0.247585
H32   H     H_    0.713360 0.570467 0.749462 0.235450
H33   H     H_    0.711843 0.328111 0.742923 0.230822
C62   C     C_3   0.277595 0.449584 0.289749 -0.449255
C63   C     C_3   0.208787 0.448113 0.275274 -0.298152
C64   C     C_3   0.172426 0.446146 0.172661 -0.796816
H34   H     H_    0.179862 0.573343 0.138519 0.253714
H35   H     H_    0.186392 0.330479 0.137167 0.256891
H36   H     H_    0.123244 0.433389 0.164757 0.267940
H37   H     H_    0.196527 0.327521 0.309169 0.243452
H38   H     H_    0.195786 0.569426 0.307709 0.247475
H39   H     H_    0.286672 0.566277 0.250631 0.237182
H40   H     H_    0.288561 0.323982 0.259021 0.229571

loop_
_geom_bond_atom_site_label_1
_geom_bond_atom_site_label_2
_geom_bond_distance
_ccdc_geom_bond_type
O17   V3    1.809786 S    
C47   C51   1.224161 T    
C51   C52   1.441877 S    
O1    C5    1.340209 A    
C53   C54   1.538294 S    
O19   V1    1.809792 S    
O13   V1    1.970283 S    
O3    C7    1.340206 A    
N3    O25   1.300194 A    
C10   C18   1.382406 A    
C59   H33   1.099132 S    
O15   V3    1.970300 S    
C25   C33   1.432765 A    
C61   H27   1.108395 S    
C39   H11   1.077055 S    
C49   C50   1.441876 S    
C41   N1    1.429072 S    
C35   C40   1.406001 A    
C26   C30   1.435565 A    
C13   C53   1.528481 S    
C36   C39   1.405786 A    
C40   C44   1.391510 A    
O2    V4    2.022716 S    
C14   C18   1.409376 A    
C13   C17   1.408647 A    
C57   H23   1.105350 S    
O4    C8    1.339098 A    
C61   H28   1.107508 S    
C53   H18   1.099638 S    
C2    C47   1.466331 S    
O1    V3    2.022713 S    
C9    C21   1.381313 A    
C56   H25   1.100244 S    
C60   H30   1.104573 S    
O3    V1    2.022724 S    
C22   H1    1.077873 S    
C62   H40   1.099311 S    
C28   C36   1.432403 A    
C17   H6    1.079498 S    
C1    O15   1.326617 A    
C15   C31   1.444463 A    
C56   C57   1.538139 S    
C2    O16   1.326628 A    
C63   C64   1.528799 S    
C16   C32   1.444715 A    
O2    C6    1.339093 A    
C64   H36   1.110377 S    
C54   H17   1.104659 S    
C10   C22   1.381177 A    
N1    O22   1.299979 A    
C11   C19   1.382271 A    
C16   C20   1.409379 A    
C45   C49   1.224164 T    
C58   H22   1.110381 S    
C13   C29   1.444464 A    
C34   C37   1.405788 A    
O11   C7    1.340991 A    
C11   C23   1.381307 A    
C35   C36   1.410579 A    
O12   C8    1.342065 A    
C42   N2    1.429088 S    
C43   N3    1.429075 S    
C40   H12   1.076782 S    
O10   V2    2.040537 S    
C57   C58   1.528795 S    
O5    V1    1.995199 S    
C3    C46   1.466333 S    
C39   C43   1.391207 A    
O7    V3    1.995224 S    
C38   C42   1.391522 A    
O8    V4    1.995227 S    
C33   C38   1.406001 A    
C37   H9    1.077062 S    
O18   V4    1.809788 S    
C61   H29   1.110368 S    
C23   C27   1.410860 A    
C7    C9    1.459204 S    
C53   H19   1.099127 S    
C46   C50   1.224163 T    
C8    C10   1.459121 S    
C56   H26   1.099306 S    
C26   C34   1.432390 A    
C20   H7    1.079491 S    
O7    C3    1.326812 A    
O5    C1    1.326809 A    
C31   C43   1.424752 A    
C14   C30   1.444713 A    
C21   C25   1.410842 A    
O8    C4    1.326801 A    
N2    O24   1.300220 A    
O9    C5    1.340988 A    
C54   H16   1.104571 S    
C55   H14   1.107506 S    
C59   C60   1.538290 S    
O14   V2    1.970285 S    
O6    V2    1.995198 S    
C16   C62   1.528699 S    
N4    O28   1.300212 A    
C64   H34   1.108527 S    
C12   C20   1.382402 A    
C27   C35   1.432772 A    
C24   H3    1.077866 S    
C62   C63   1.538140 S    
C29   C41   1.424746 A    
C58   H20   1.108526 S    
O16   V4    1.970297 S    
O9    V1    2.040534 S    
C19   H8    1.079500 S    
C3    O13   1.326614 A    
C18   H5    1.079493 S    
C21   H2    1.077576 S    
C38   H10   1.076791 S    
C48   C52   1.224164 T    
C59   H32   1.099638 S    
O6    C2    1.326799 A    
C15   C19   1.408650 A    
N3    O26   1.299968 A    
O11   V3    2.040520 S    
C30   C42   1.424877 A    
O12   V4    2.040521 S    
C6    C12   1.459121 S    
C22   C26   1.410332 A    
C15   C59   1.528484 S    
C9    C17   1.382276 A    
O10   C6    1.342070 A    
O20   V2    1.809794 S    
C5    C11   1.459191 S    
N1    O21   1.300208 A    
C32   C44   1.424881 A    
C57   H24   1.104667 S    
C33   C34   1.410575 A    
C25   C29   1.435905 A    
N2    O23   1.300001 A    
C4    C45   1.466330 S    
C12   C24   1.381174 A    
C55   H15   1.110370 S    
C27   C31   1.435919 A    
C60   H31   1.104657 S    
C54   C55   1.528602 S    
C44   N4    1.429081 S    
C23   H4    1.077571 S    
C62   H39   1.100250 S    
C1    C48   1.466329 S    
C14   C56   1.528694 S    
C37   C41   1.391210 A    
C24   C28   1.410335 A    
N4    O27   1.299999 A    
C4    O14   1.326625 A    
C55   H13   1.108392 S    
C64   H35   1.107074 S    
C63   H37   1.105368 S    
C60   C61   1.528603 S    
C63   H38   1.104662 S    
O4    V2    2.022721 S    
C28   C32   1.435573 A    
C58   H21   1.107068 S    
