data_mof_unit_pretest_1747.cif
_audit_creation_date              2012-12-10T17:15:54-0500
_audit_creation_method            fapswitch 2.2
_symmetry_space_group_name_H-M    P1
_symmetry_Int_Tables_number       1
_space_group_crystal_system       triclinic
_cell_length_a                    18.440254
_cell_length_b                    18.440229
_cell_length_c                    43.04612
_cell_angle_alpha                 90.001455
_cell_angle_beta                  90.001657
_cell_angle_gamma                 89.643133
_cell_volume                      14637.2266077

loop_
_atom_site_label
_atom_site_type_symbol
_atom_type_description
_atom_site_fract_x
_atom_site_fract_y
_atom_site_fract_z
_atom_type_partial_charge
Br1   Br    Br    0.188065 0.688171 0.065563 -0.285712
Br2   Br    Br    0.839288 0.713119 0.563284 -0.272843
Br3   Br    Br    0.311652 0.812153 0.565555 -0.286661
Br4   Br    Br    0.160732 0.286899 0.563286 -0.272819
Br5   Br    Br    0.286902 0.160727 0.563285 -0.273043
Br6   Br    Br    0.187862 0.688352 0.565555 -0.286782
Br7   Br    Br    0.713115 0.839289 0.563283 -0.273059
Br8   Br    Br    0.812169 0.311640 0.565554 -0.286807
Br9   Br    Br    0.104045 0.665468 0.928899 -0.307706
Br10  Br    Br    0.318823 0.073444 0.938766 -0.338946
Br11  Br    Br    0.895922 0.334537 0.928893 -0.307675
Br12  Br    Br    0.339951 0.213743 0.063181 -0.274827
Br13  Br    Br    0.681179 0.926555 0.938770 -0.338946
Br14  Br    Br    0.926590 0.681219 0.938787 -0.338955
Br15  Br    Br    0.665493 0.104028 0.928905 -0.307736
Br16  Br    Br    0.073379 0.318760 0.938796 -0.338979
Br17  Br    Br    0.334501 0.895967 0.928906 -0.307735
Br18  Br    Br    0.603598 0.165707 0.429017 -0.308558
Br19  Br    Br    0.819158 0.573984 0.438549 -0.338810
Br20  Br    Br    0.396383 0.834292 0.429014 -0.308541
Br21  Br    Br    0.180834 0.426003 0.438548 -0.338799
Br22  Br    Br    0.425972 0.180804 0.438534 -0.338783
Br23  Br    Br    0.811946 0.311838 0.065562 -0.285717
Br24  Br    Br    0.165688 0.603618 0.429011 -0.308531
Br25  Br    Br    0.574012 0.819187 0.438537 -0.338796
Br26  Br    Br    0.834311 0.396365 0.429009 -0.308518
Br27  Br    Br    0.451634 0.154356 0.882879 -0.142447
Br28  Br    Br    0.845679 0.548472 0.882880 -0.142489
Br29  Br    Br    0.548357 0.845638 0.882878 -0.142455
Br30  Br    Br    0.154311 0.451497 0.882883 -0.142546
Br31  Br    Br    0.952968 0.654794 0.382850 -0.141724
Br32  Br    Br    0.345174 0.046938 0.382846 -0.141664
Br33  Br    Br    0.047014 0.345199 0.382848 -0.141706
Br34  Br    Br    0.660068 0.786273 0.063183 -0.274807
Br35  Br    Br    0.654818 0.953042 0.382848 -0.141687
Br36  Br    Br    0.786268 0.660069 0.063184 -0.274726
Br37  Br    Br    0.688185 0.188056 0.065564 -0.285646
Br38  Br    Br    0.213752 0.339948 0.063182 -0.274744
Br39  Br    Br    0.311846 0.811935 0.065563 -0.285670
Br40  Br    Br    0.688356 0.187860 0.565555 -0.286654
C1    C     C_R   0.999999 0.499998 0.915673 1.035676
C2    C     C_R   0.936539 0.517808 0.667316 0.565050
C3    C     C_R   0.256138 0.309091 0.413892 0.577255
C4    C     C_R   0.309072 0.256143 0.413889 0.577238
C5    C     C_R   0.204406 0.742957 0.412877 0.555866
C6    C     C_R   0.690899 0.743830 0.413891 0.577242
C7    C     C_R   0.795578 0.257026 0.412876 0.555866
C8    C     C_R   0.277352 0.777221 0.968610 -0.137002
C9    C     C_R   0.206731 0.261763 0.970022 -0.131288
C10   C     C_R   0.722638 0.222779 0.968610 -0.137006
C11   C     C_R   0.793255 0.738228 0.970021 -0.131288
C12   C     C_R   0.738226 0.793250 0.970019 -0.131286
C13   C     C_R   0.517644 0.936493 0.667319 0.565031
C14   C     C_R   0.777209 0.277360 0.968609 -0.136987
C15   C     C_R   0.261764 0.206742 0.970019 -0.131280
C16   C     C_R   0.222778 0.722644 0.968609 -0.136983
C17   C     C_R   0.777161 0.277412 0.468605 -0.136955
C18   C     C_R   0.707080 0.762100 0.469948 -0.131383
C19   C     C_R   0.222835 0.722582 0.468606 -0.136954
C20   C     C_R   0.292911 0.237891 0.469948 -0.131387
C21   C     C_R   0.237891 0.292916 0.469949 -0.131387
C22   C     C_R   0.277415 0.777161 0.468606 -0.136963
C23   C     C_R   0.762100 0.707075 0.469950 -0.131385
C24   C     C_R   0.063467 0.482194 0.667317 0.565049
C25   C     C_R   0.722578 0.222836 0.468606 -0.136962
C26   C     C_R   0.192980 0.699221 0.997602 -0.116446
C27   C     C_R   0.300506 0.192598 0.998154 -0.105273
C28   C     C_R   0.807016 0.300782 0.997601 -0.116454
C29   C     C_R   0.699493 0.807402 0.998155 -0.105283
C30   C     C_R   0.807402 0.699494 0.998157 -0.105284
C31   C     C_R   0.699222 0.192979 0.997603 -0.116448
C32   C     C_R   0.192597 0.300506 0.998157 -0.105264
C33   C     C_R   0.300781 0.807018 0.997602 -0.116447
C34   C     C_R   0.692967 0.199235 0.497606 -0.116294
C35   C     C_R   0.000002 0.500002 0.183836 -0.429623
C36   C     C_R   0.800497 0.692588 0.498140 -0.105659
C37   C     C_R   0.307030 0.800768 0.497606 -0.116300
C38   C     C_R   0.199503 0.307412 0.498140 -0.105674
C39   C     C_R   0.307411 0.199502 0.498139 -0.105655
C40   C     C_R   0.199234 0.692967 0.497606 -0.116288
C41   C     C_R   0.692588 0.800497 0.498138 -0.105641
C42   C     C_R   0.800769 0.307029 0.497605 -0.116290
C43   C     C_R   0.219093 0.727595 0.025880 0.215786
C44   C     C_R   0.284670 0.231111 0.025541 0.209160
C45   C     C_R   0.780913 0.272408 0.025879 0.215789
C46   C     C_R   0.500003 0.000001 0.183837 -0.429627
C47   C     C_R   0.715338 0.768896 0.025543 0.209156
C48   C     C_R   0.768894 0.715339 0.025543 0.209153
C49   C     C_R   0.727600 0.219089 0.025880 0.215794
C50   C     C_R   0.231115 0.284669 0.025542 0.209152
C51   C     C_R   0.272411 0.780908 0.025880 0.215795
C52   C     C_R   0.719223 0.227465 0.525885 0.215825
C53   C     C_R   0.784366 0.730811 0.525572 0.209018
C54   C     C_R   0.280782 0.772538 0.525884 0.215827
C55   C     C_R   0.215642 0.269197 0.525573 0.209016
C56   C     C_R   0.269199 0.215641 0.525573 0.209004
C57   C     C_R   0.500004 0.000002 0.683833 -0.429543
C58   C     C_R   0.227467 0.719220 0.525884 0.215811
C59   C     C_R   0.730809 0.784366 0.525572 0.209007
C60   C     C_R   0.772543 0.280778 0.525884 0.215816
C61   C     C_R   0.982761 0.563659 0.134955 0.547537
C62   C     C_R   0.436328 0.017175 0.134955 0.547550
C63   C     C_R   0.017243 0.436346 0.134954 0.547536
C64   C     C_R   0.563677 0.982829 0.134956 0.547551
C65   C     C_R   0.482294 0.063531 0.634949 0.547424
C66   C     C_R   0.936520 0.517876 0.634945 0.547388
C67   C     C_R   0.517712 0.936474 0.634948 0.547425
C68   C     C_R   0.000003 0.500000 0.683831 -0.429527
C69   C     C_R   0.063486 0.482127 0.634946 0.547388
C70   C     C_R   0.000002 0.500002 0.118389 -0.518646
C71   C     C_R   0.500002 0.000002 0.118389 -0.518666
C72   C     C_R   0.500002 0.000002 0.618386 -0.518517
C73   C     C_R   0.499999 0.999999 0.915673 1.035688
C74   C     C_R   0.000002 0.500001 0.618384 -0.518468
C75   C     C_R   0.500003 0.999999 0.781035 0.419770
C76   C     C_R   1.000000 0.499994 0.781033 0.419677
C77   C     C_R   0.999998 0.499999 0.281031 0.419927
C78   C     C_R   0.499999 0.999998 0.281032 0.419956
C79   C     C_R   0.000000 0.500001 0.218051 0.448048
C80   C     C_R   0.500002 0.000000 0.218052 0.448059
C81   C     C_R   0.500004 0.000001 0.718052 0.447899
C82   C     C_R   0.000002 0.499998 0.718050 0.447864
C83   C     C_R   0.481237 0.062958 0.831697 0.611395
C84   C     C_R   0.499999 0.999999 0.415670 1.035870
C85   C     C_R   0.937055 0.518813 0.831697 0.611402
C86   C     C_R   0.518763 0.937038 0.831696 0.611397
C87   C     C_R   0.062941 0.481171 0.831698 0.611410
C88   C     C_R   0.981769 0.563110 0.331688 0.611365
C89   C     C_R   0.436877 0.018189 0.331687 0.611356
C90   C     C_R   0.018223 0.436886 0.331687 0.611364
C91   C     C_R   0.563119 0.981801 0.331688 0.611359
C92   C     C_R   0.481016 0.063672 0.864142 0.226472
C93   C     C_R   0.936340 0.519028 0.864142 0.226460
C94   C     C_R   0.518980 0.936324 0.864142 0.226471
C95   C     C_R   0.999999 0.499999 0.415670 1.035865
C96   C     C_R   0.063654 0.480955 0.864144 0.226453
C97   C     C_R   0.981552 0.563831 0.364133 0.226831
C98   C     C_R   0.436155 0.018406 0.364132 0.226841
C99   C     C_R   0.018439 0.436165 0.364132 0.226832
C100  C     C_R   0.563840 0.981583 0.364133 0.226840
C101  C     C_R   0.499998 0.999998 0.881091 -0.383870
C102  C     C_R   0.999997 0.499994 0.881091 -0.383855
C103  C     C_R   0.999996 0.499998 0.381085 -0.384196
C104  C     C_R   0.499998 0.999996 0.381085 -0.384205
C105  C     C_R   0.500001 0.999998 0.815285 -0.335168
C106  C     C_R   0.982836 0.563637 0.167325 0.565006
C107  C     C_R   0.999998 0.499993 0.815285 -0.335153
C108  C     C_R   0.999997 0.499998 0.315279 -0.335329
C109  C     C_R   0.499998 0.999996 0.315279 -0.335333
C110  C     C_R   0.000000 0.500001 0.084125 0.983431
C111  C     C_R   0.500001 0.000000 0.084125 0.983391
C112  C     C_R   0.500000 0.000001 0.584124 0.983731
C113  C     C_R   0.000001 0.500000 0.584123 0.983837
C114  C     C_R   0.860339 0.640408 0.999750 0.898956
C115  C     C_R   0.359109 0.860753 0.999347 0.896193
C116  C     C_R   0.139661 0.359593 0.999751 0.898935
C117  C     C_R   0.436350 0.017100 0.167325 0.564999
C118  C     C_R   0.640892 0.139246 0.999347 0.896191
C119  C     C_R   0.139245 0.640893 0.999346 0.896205
C120  C     C_R   0.640410 0.860341 0.999749 0.898954
C121  C     C_R   0.860754 0.359108 0.999345 0.896208
C122  C     C_R   0.359589 0.139657 0.999748 0.898934
C123  C     C_R   0.360356 0.140423 0.499738 0.898770
C124  C     C_R   0.859110 0.360751 0.499349 0.896268
C125  C     C_R   0.639643 0.859577 0.499738 0.898749
C126  C     C_R   0.140891 0.639248 0.499350 0.896263
C127  C     C_R   0.639249 0.140890 0.499351 0.896246
C128  C     C_R   0.017168 0.436367 0.167324 0.565006
C129  C     C_R   0.140422 0.360354 0.499739 0.898772
C130  C     C_R   0.360750 0.859111 0.499350 0.896248
C131  C     C_R   0.859579 0.639645 0.499739 0.898752
C132  C     C_R   0.200499 0.694277 0.939152 0.121171
C133  C     C_R   0.274000 0.167026 0.941858 0.093810
C134  C     C_R   0.799472 0.305731 0.939151 0.121187
C135  C     C_R   0.725983 0.832963 0.941858 0.093815
C136  C     C_R   0.832981 0.725990 0.941863 0.093810
C137  C     C_R   0.694267 0.200494 0.939155 0.121177
C138  C     C_R   0.166990 0.273989 0.941867 0.093798
C139  C     C_R   0.563655 0.982904 0.167326 0.564999
C140  C     C_R   0.305712 0.799506 0.939153 0.121159
C141  C     C_R   0.700074 0.194675 0.439144 0.120717
C142  C     C_R   0.774679 0.667708 0.441726 0.094210
C143  C     C_R   0.299910 0.805320 0.439144 0.120718
C144  C     C_R   0.225304 0.332275 0.441725 0.094217
C145  C     C_R   0.332258 0.225299 0.441721 0.094222
C146  C     C_R   0.194671 0.700087 0.439143 0.120723
C147  C     C_R   0.667723 0.774684 0.441722 0.094215
C148  C     C_R   0.805321 0.299900 0.439142 0.120720
C149  C     C_R   0.243606 0.703762 0.912940 0.555552
C150  C     C_R   0.482364 0.063511 0.667320 0.565030
C151  C     C_R   0.242668 0.189752 0.914056 0.577575
C152  C     C_R   0.756350 0.296249 0.912942 0.555540
C153  C     C_R   0.757296 0.810226 0.914055 0.577570
C154  C     C_R   0.810246 0.757293 0.914058 0.577595
C155  C     C_R   0.703729 0.243608 0.912944 0.555572
C156  C     C_R   0.189712 0.242679 0.914061 0.577597
C157  C     C_R   0.296232 0.756397 0.912940 0.555579
C158  C     C_R   0.742941 0.204403 0.412877 0.555883
C159  C     C_R   0.743834 0.690882 0.413893 0.577257
C160  C     C_R   0.257038 0.795585 0.412877 0.555881
F1    F     F_    0.226657 0.670572 0.885737 -0.517192
F2    F     F_    0.759595 0.656457 0.386793 -0.509184
F3    F     F_    0.274200 0.828558 0.385652 -0.517103
F4    F     F_    0.240368 0.343508 0.386791 -0.509182
F5    F     F_    0.343476 0.240369 0.386786 -0.509185
F6    F     F_    0.171429 0.725795 0.385652 -0.517111
F7    F     F_    0.656486 0.759596 0.386789 -0.509188
F8    F     F_    0.828552 0.274180 0.385651 -0.517105
F9    F     F_    0.964406 0.625921 0.119959 -0.511470
F10   F     F_    0.374045 0.035462 0.119959 -0.511450
F11   F     F_    0.035599 0.374084 0.119958 -0.511470
F12   F     F_    0.258047 0.154962 0.887002 -0.509010
F13   F     F_    0.625960 0.964543 0.119961 -0.511450
F14   F     F_    0.463464 0.125647 0.619948 -0.511561
F15   F     F_    0.874457 0.536875 0.619941 -0.511610
F16   F     F_    0.536542 0.874358 0.619946 -0.511561
F17   F     F_    0.125549 0.463129 0.619943 -0.511610
F18   F     F_    0.964225 0.625674 0.182430 -0.514935
F19   F     F_    0.374294 0.035644 0.182429 -0.514931
F20   F     F_    0.035779 0.374331 0.182429 -0.514935
F21   F     F_    0.625712 0.964360 0.182432 -0.514931
F22   F     F_    0.463288 0.125413 0.682423 -0.514946
F23   F     F_    0.773283 0.329444 0.885740 -0.517183
F24   F     F_    0.874687 0.537048 0.682418 -0.514958
F25   F     F_    0.536722 0.874591 0.682420 -0.514947
F26   F     F_    0.125319 0.462953 0.682420 -0.514958
F27   F     F_    0.460995 0.123937 0.816128 -0.529738
F28   F     F_    0.876092 0.539111 0.816129 -0.529729
F29   F     F_    0.539005 0.876059 0.816127 -0.529735
F30   F     F_    0.123904 0.460870 0.816132 -0.529735
F31   F     F_    0.962050 0.624253 0.316116 -0.529645
F32   F     F_    0.375724 0.037875 0.316112 -0.529643
F33   F     F_    0.037941 0.375743 0.316114 -0.529641
F34   F     F_    0.741909 0.845013 0.887001 -0.509011
F35   F     F_    0.624271 0.962115 0.316115 -0.529647
F36   F     F_    0.845048 0.741912 0.887007 -0.509000
F37   F     F_    0.670534 0.226653 0.885743 -0.517183
F38   F     F_    0.154894 0.258048 0.887012 -0.509008
F39   F     F_    0.329416 0.773352 0.885739 -0.517180
F40   F     F_    0.725770 0.171428 0.385653 -0.517109
N1    N     N_R   0.986720 0.438178 0.234094 -0.040687
N2    N     N_R   0.061974 0.512555 0.764981 -0.039442
N3    N     N_R   0.512712 0.061943 0.764983 -0.039493
N4    N     N_R   0.938027 0.487435 0.764978 -0.039442
N5    N     N_R   0.986694 0.438184 0.264978 -0.039507
N6    N     N_R   0.561802 0.013365 0.264981 -0.039522
N7    N     N_R   0.013304 0.561815 0.264980 -0.039506
N8    N     N_R   0.438198 0.986632 0.264979 -0.039522
N9    N     N_R   0.561810 0.013340 0.234098 -0.040685
N10   N     N_R   0.013280 0.561824 0.234097 -0.040686
N11   N     N_R   0.438192 0.986658 0.234095 -0.040686
N12   N     N_R   0.487320 0.938051 0.734097 -0.040627
N13   N     N_R   0.061982 0.512531 0.734097 -0.040627
N14   N     N_R   0.512687 0.061950 0.734099 -0.040625
N15   N     N_R   0.938021 0.487463 0.734094 -0.040628
N16   N     N_R   0.487294 0.938056 0.764981 -0.039495
O1    O     O_3   1.000000 0.500000 0.999980 -0.559786
O2    O     O_R   0.000000 0.560770 0.430660 -0.577933
O3    O     O_R   0.439230 1.000000 0.430660 -0.577933
O4    O     O_R   0.000000 0.439230 0.430660 -0.577937
O5    O     O_R   0.000000 0.560700 0.069300 -0.569977
O6    O     O_R   0.439300 0.000000 0.069300 -0.569942
O7    O     O_R   0.000000 0.439300 0.069300 -0.569966
O8    O     O_R   0.560700 0.000000 0.069300 -0.569955
O9    O     O_R   0.500000 0.060700 0.569300 -0.570099
O10   O     O_R   0.939300 0.500000 0.569300 -0.570140
O11   O     O_R   0.500000 0.939300 0.569300 -0.570087
O12   O     O_3   0.500000 0.000000 0.999980 -0.559790
O13   O     O_R   0.060700 0.500000 0.569300 -0.570153
O14   O     O_R   0.853840 0.585430 0.981810 -0.614653
O15   O     O_R   0.414570 0.853840 0.981810 -0.620186
O16   O     O_R   0.146160 0.414570 0.981810 -0.614651
O17   O     O_R   0.585430 0.146160 0.981810 -0.620186
O18   O     O_R   0.146160 0.585430 0.981810 -0.620181
O19   O     O_R   0.585430 0.853840 0.981810 -0.614645
O20   O     O_R   0.853840 0.414570 0.981810 -0.620189
O21   O     O_R   0.414570 0.146160 0.981810 -0.614635
O22   O     O_R   0.353840 0.085430 0.481810 -0.614753
O23   O     O_3   0.500000 1.000000 0.499980 -0.559743
O24   O     O_R   0.914570 0.353840 0.481810 -0.620070
O25   O     O_R   0.646160 0.914570 0.481810 -0.614747
O26   O     O_R   0.085430 0.646160 0.481810 -0.620065
O27   O     O_R   0.646160 0.085430 0.481810 -0.620068
O28   O     O_R   0.085430 0.353840 0.481810 -0.614760
O29   O     O_R   0.353840 0.914570 0.481810 -0.620072
O30   O     O_R   0.914570 0.646160 0.481810 -0.614756
O31   O     O_R   0.085460 0.353830 0.018160 -0.590064
O32   O     O_R   0.646170 0.085460 0.018160 -0.594439
O33   O     O_R   0.914540 0.646170 0.018160 -0.590071
O34   O     O_3   0.000000 0.500000 0.499980 -0.559735
O35   O     O_R   0.353830 0.914540 0.018160 -0.594436
O36   O     O_R   0.914540 0.353830 0.018160 -0.594437
O37   O     O_R   0.353830 0.085460 0.018160 -0.590084
O38   O     O_R   0.085460 0.646170 0.018160 -0.594445
O39   O     O_R   0.646170 0.914540 0.018160 -0.590084
O40   O     O_R   0.585460 0.853830 0.518160 -0.590114
O41   O     O_R   0.146170 0.585460 0.518160 -0.594592
O42   O     O_R   0.414540 0.146170 0.518160 -0.590117
O43   O     O_R   0.853830 0.414540 0.518160 -0.594587
O44   O     O_R   0.414540 0.853830 0.518160 -0.594566
O45   O     O_R   0.060770 0.500000 0.930660 -0.577970
O46   O     O_R   0.853830 0.585460 0.518160 -0.590097
O47   O     O_R   0.585460 0.146170 0.518160 -0.594572
O48   O     O_R   0.146170 0.414540 0.518160 -0.590100
O49   O     O_R   0.500000 0.060770 0.930660 -0.577961
O50   O     O_R   0.939230 0.500000 0.930660 -0.577971
O51   O     O_R   0.500000 0.939230 0.930660 -0.577968
O52   O     O_R   0.560770 1.000000 0.430660 -0.577929
Zn1   Zn    Zn3+2 0.000000 0.586740 0.025950 1.123321
Zn2   Zn    Zn3+2 0.500000 0.913260 0.974020 1.097478
Zn3   Zn    Zn3+2 0.086740 0.500000 0.974020 1.097476
Zn4   Zn    Zn3+2 0.500000 0.086740 0.974020 1.097478
Zn5   Zn    Zn3+2 0.413260 1.000000 0.474020 1.097393
Zn6   Zn    Zn3+2 0.000000 0.413260 0.474020 1.097399
Zn7   Zn    Zn3+2 0.586740 1.000000 0.474020 1.097390
Zn8   Zn    Zn3+2 0.000000 0.586740 0.474020 1.097395
Zn9   Zn    Zn3+2 0.413260 1.000000 0.025950 1.123319
Zn10  Zn    Zn3+2 0.000000 0.413260 0.025950 1.123323
Zn11  Zn    Zn3+2 0.586740 1.000000 0.025950 1.123323
Zn12  Zn    Zn3+2 0.500000 0.086740 0.525950 1.123191
Zn13  Zn    Zn3+2 0.913260 0.500000 0.525950 1.123179
Zn14  Zn    Zn3+2 0.500000 0.913260 0.525950 1.123191
Zn15  Zn    Zn3+2 0.086740 0.500000 0.525950 1.123181
Zn16  Zn    Zn3+2 0.913260 0.500000 0.974020 1.097482

loop_
_geom_bond_atom_site_label_1
_geom_bond_atom_site_label_2
_ccdc_geom_bond_type
C20   C39   A    
C28   C45   A    
C67   C72   A    
C22   C37   A    
O22   Zn5   S    
C5    C160  A    
C95   O4    A    
Br7   C59   S    
C139  F21   S    
N1    N5    A    
O5    Zn1   S    
C129  O48   A    
C131  O46   A    
O2    Zn8   S    
C83   F27   S    
C23   C36   A    
C29   C120  S    
Br12  C44   S    
C19   C146  A    
C34   C52   A    
C151  C156  A    
C15   C133  A    
C91   C100  A    
C13   F25   S    
C22   C143  A    
C122  O21   A    
C83   C105  A    
O30   Zn8   S    
C7    C158  A    
Br31  C97   S    
O11   Zn14  S    
C110  O7    A    
C62   C71   A    
C65   C150  A    
Br39  C51   S    
C34   C127  S    
C125  O40   A    
C76   N2    A    
C11   C12   A    
C152  C155  A    
C121  O36   A    
C87   C96   A    
C152  F23   S    
C79   N10   A    
C82   N15   A    
O12   Zn11  S    
C41   C59   A    
C91   F35   S    
C61   C70   A    
C133  C151  A    
O34   Zn15  S    
C78   C109  S    
C3    C4    A    
O43   Zn13  S    
C33   C115  S    
C120  O19   A    
C128  F20   S    
C79   N1    A    
C12   C135  A    
O12   Zn4   S    
C130  O44   A    
C111  O8    A    
C65   C72   A    
Br30  C96   S    
C132  C149  A    
C91   C109  A    
C153  F34   S    
C43   C51   A    
C126  O41   A    
O13   Zn15  S    
N7    N10   A    
C149  C157  A    
Br13  C135  S    
C95   O2    A    
C154  F36   S    
C137  C155  A    
C142  C159  A    
O32   Zn11  S    
C70   C110  S    
C19   C40   A    
C76   C107  S    
O37   Zn9   S    
C78   N6    A    
O49   Zn4   S    
O39   Zn11  S    
Br38  C50   S    
C90   F33   S    
C13   C57   A    
C14   C134  A    
C113  O10   A    
C39   C56   A    
C94   C101  A    
C157  F39   S    
C27   C122  S    
C42   C124  S    
Br33  C99   S    
C16   C26   A    
C4    F5    S    
C78   N8    A    
Br34  C47   S    
C11   C136  A    
C110  O5    A    
C106  F18   S    
C86   C94   A    
C127  O47   A    
C153  C154  A    
C124  O24   A    
C114  O14   A    
O50   Zn16  S    
C135  C153  A    
C127  O27   A    
C76   N4    A    
C5    F6    S    
C32   C116  S    
C83   C92   A    
O44   Zn14  S    
C131  O30   A    
C82   N13   A    
O41   Zn15  S    
Br36  C48   S    
Br32  C98   S    
C93   C102  A    
C63   C70   A    
O23   Zn14  S    
C150  F22   S    
C14   C28   A    
C37   C54   A    
C57   C81   S    
Br25  C147  S    
C111  O6    A    
C99   C103  A    
C84   O3    A    
C159  F2    S    
C96   C102  A    
C85   F28   S    
C4    C145  A    
C95   C103  S    
Br27  C92   S    
O31   Zn10  S    
C44   C50   A    
C2    F24   S    
O34   Zn13  S    
C26   C119  S    
C86   C105  A    
Br16  C138  S    
C24   C68   A    
C35   C106  A    
O33   Zn1   S    
O15   Zn2   S    
C86   F29   S    
O46   Zn13  S    
C63   F11   S    
O47   Zn12  S    
Br18  C141  S    
C61   F9    S    
C9    C15   A    
C138  C156  A    
C25   C34   A    
O7    Zn10  S    
C89   C109  A    
O52   Zn7   S    
C32   C50   A    
C158  F40   S    
C69   C74   A    
O24   Zn6   S    
O23   Zn12  S    
Br15  C137  S    
C84   O52   A    
C130  O29   A    
C8    C140  A    
O19   Zn2   S    
C118  O17   A    
O10   Zn13  S    
C92   C101  A    
Br11  C134  S    
C65   F14   S    
C18   C147  A    
O20   Zn16  S    
C114  O33   A    
C143  C160  A    
O51   Zn2   S    
Br8   C60   S    
O16   Zn3   S    
C1    C102  S    
C98   C104  A    
C24   C69   A    
O38   Zn1   S    
C46   C139  A    
C73   C101  S    
O48   Zn15  S    
C46   C117  A    
C69   F17   S    
O8    Zn11  S    
O4    Zn6   S    
C3    F4    S    
N2    N13   A    
C17   C42   A    
C46   C80   S    
C116  O31   A    
C134  C152  A    
N6    N9    A    
Br21  C144  S    
C47   C48   A    
C20   C145  A    
O9    Zn12  S    
C28   C121  S    
O23   Zn7   S    
C89   F32   S    
C10   C14   A    
C7    F8    S    
Br6   C58   S    
O6    Zn9   S    
C64   F13   S    
C64   C139  A    
C54   C58   A    
O1    Zn16  S    
Br24  C146  S    
C40   C126  S    
C124  O43   A    
Br14  C136  S    
C12   C29   A    
C26   C43   A    
C75   N16   A    
C37   C130  S    
C21   C144  A    
C72   C112  S    
C35   C128  A    
C6    C147  A    
C122  O37   A    
C53   C59   A    
C29   C47   A    
Br10  C133  S    
Br29  C94   S    
C16   C132  A    
O34   Zn8   S    
O36   Zn10  S    
C90   C99   A    
Br19  C142  S    
C155  F37   S    
C125  O25   A    
C10   C137  A    
C80   N9    A    
C85   C107  A    
C120  O39   A    
C68   C82   S    
C45   C49   A    
C88   C108  A    
C81   N12   A    
C156  F38   S    
C87   F30   S    
Br28  C93   S    
C20   C21   A    
C10   C31   A    
Br35  C100  S    
C64   C71   A    
Br4   C55   S    
C13   C67   A    
C38   C55   A    
Br20  C143  S    
O3    Zn5   S    
C88   F31   S    
C77   C108  S    
C18   C41   A    
O42   Zn12  S    
Br5   C56   S    
C9    C138  A    
O23   Zn5   S    
C31   C118  S    
C40   C58   A    
C119  O18   A    
C8    C33   A    
C100  C104  A    
C17   C25   A    
C115  O15   A    
C116  O16   A    
C77   N5    A    
C112  O9    A    
Br1   C43   S    
C75   C105  S    
Br37  C49   S    
O34   Zn6   S    
Br9   C132  S    
O27   Zn7   S    
C136  C154  A    
C1    O50   A    
C55   C56   A    
C80   N11   A    
C30   C48   A    
O1    Zn10  S    
C24   F26   S    
C6    C159  A    
C81   N14   A    
C25   C141  A    
C118  O32   A    
C66   F15   S    
N3    N14   A    
C66   C74   A    
C36   C53   A    
C5    C146  A    
C3    C144  A    
C117  F19   S    
O1    Zn1   S    
C17   C148  A    
C140  C157  A    
C89   C98   A    
C9    C32   A    
C73   O49   A    
C11   C30   A    
C74   C113  S    
N8    N11   A    
C151  F12   S    
N12   N16   A    
C97   C103  A    
C63   C128  A    
C23   C142  A    
O40   Zn14  S    
Br26  C148  S    
C141  C158  A    
C62   C117  A    
C77   N7    A    
C112  O11   A    
C6    F7    S    
C61   C106  A    
C67   F16   S    
C90   C108  A    
C35   C79   S    
C33   C51   A    
C123  O42   A    
C1    O45   A    
C62   F10   S    
C149  F1    S    
N4    N15   A    
C38   C129  S    
C36   C131  S    
C88   C97   A    
C121  O20   A    
C2    C66   A    
C31   C49   A    
C21   C38   A    
O35   Zn9   S    
Br40  C52   S    
O17   Zn4   S    
O18   Zn3   S    
C75   N3    A    
Br17  C140  S    
C57   C150  A    
O29   Zn5   S    
C126  O26   A    
C52   C60   A    
C85   C93   A    
C18   C23   A    
C8    C16   A    
C19   C22   A    
C41   C125  S    
C115  O35   A    
C30   C114  S    
C42   C60   A    
Br2   C53   S    
C113  O13   A    
C39   C123  S    
C71   C111  S    
O21   Zn4   S    
C15   C27   A    
C123  O22   A    
C129  O28   A    
Br22  C145  S    
O1    Zn3   S    
O12   Zn9   S    
O26   Zn8   S    
C160  F3    S    
O28   Zn6   S    
C73   O51   A    
Br3   C54   S    
C119  O38   A    
C27   C44   A    
O45   Zn3   S    
Br23  C45   S    
O14   Zn16  S    
C84   C104  S    
O25   Zn7   S    
C7    C148  A    
C2    C68   A    
O12   Zn2   S    
C87   C107  A    
