data_mof_unit_pretest_882.cif
_audit_creation_date              2012-12-10T20:46:34-0500
_audit_creation_method            fapswitch 2.2
_symmetry_space_group_name_H-M    P1
_symmetry_Int_Tables_number       1
_space_group_crystal_system       triclinic
_cell_length_a                    10.392731
_cell_length_b                    8.917694
_cell_length_c                    8.117507
_cell_angle_alpha                 89.999893
_cell_angle_beta                  101.987036
_cell_angle_gamma                 89.999963
_cell_volume                      735.919301261

loop_
_atom_site_label
_atom_site_type_symbol
_atom_type_description
_atom_site_fract_x
_atom_site_fract_y
_atom_site_fract_z
_atom_type_partial_charge
C1    C     C_R   0.500000 0.218013 0.500000 0.943985
C2    C     C_1   0.500001 0.934752 0.500000 -0.177161
C3    C     C_1   0.849034 0.237860 0.439909 0.099711
C4    C     C_1   0.150968 0.237863 0.560099 0.099709
C5    C     C_3   0.932328 0.690411 0.772708 0.055670
C6    C     C_3   0.870509 0.827749 0.673026 -0.324194
C7    C     C_3   0.815759 0.936522 0.786443 -0.927138
C8    C     C_3   0.067672 0.690413 0.227294 0.055672
C9    C     C_3   0.129482 0.827747 0.326987 -0.324198
C10   C     C_3   0.184240 0.936526 0.213584 -0.927158
C11   C     C_R   0.500000 0.781972 0.500000 0.930881
C12   C     C_R   0.255385 0.498672 0.432962 0.766634
C13   C     C_R   0.744615 0.498672 0.567037 0.766640
C14   C     C_2   0.111850 0.477148 0.404132 0.327798
C15   C     C_2   0.888150 0.477150 0.595868 0.327788
C16   C     C_2   0.067825 0.361891 0.487147 -0.037728
C17   C     C_2   0.932175 0.361890 0.512857 -0.037728
C18   C     C_1   0.500001 0.065192 0.500000 -0.170104
H1    H     H_    0.019528 0.730965 0.864779 0.158244
H2    H     H_    0.053391 0.886330 0.380876 0.232049
H3    H     H_    0.209881 0.793623 0.432668 0.216493
H4    H     H_    0.263395 0.881767 0.161960 0.276450
H5    H     H_    0.225882 0.036461 0.287137 0.268572
H6    H     H_    0.105058 0.974220 0.107954 0.257028
H7    H     H_    0.866601 0.638611 0.848609 0.147470
H8    H     H_    0.946593 0.886335 0.619126 0.232046
H9    H     H_    0.790103 0.793626 0.567351 0.216486
H10   H     H_    0.736609 0.881760 0.838074 0.276448
H11   H     H_    0.774112 0.036459 0.712896 0.268570
H12   H     H_    0.894949 0.974213 0.892068 0.257025
H13   H     H_    0.980475 0.730967 0.135220 0.158245
H14   H     H_    0.133405 0.638620 0.151395 0.147471
N1    N     N_1   0.500020 0.500000 0.073650 -0.023317
N2    N     N_1   0.499980 0.500000 0.926350 -0.023317
N3    N     N_1   0.783697 0.138622 0.380833 -0.198598
N4    N     N_1   0.216305 0.138627 0.619177 -0.198595
O1    O     O_R   0.499990 0.285340 0.636850 -0.601418
O2    O     O_3   0.020561 0.586506 0.331938 -0.624647
O3    O     O_R   0.500010 0.714660 0.363150 -0.609758
O4    O     O_R   0.500010 0.285340 0.363150 -0.601417
O5    O     O_R   0.499990 0.714660 0.636850 -0.609756
O6    O     O_R   0.317810 0.500000 0.585760 -0.590569
O7    O     O_R   0.682190 0.500000 0.414240 -0.590567
O8    O     O_R   0.317820 0.500000 0.312020 -0.627132
O9    O     O_R   0.682180 0.500000 0.687980 -0.627135
O10   O     O_3   0.979437 0.586515 0.668051 -0.624648
Zn1   Zn    Zn3+2 0.499990 0.500000 0.682780 0.994596
Zn2   Zn    Zn3+2 0.500010 0.500000 0.317220 0.994597

loop_
_geom_bond_atom_site_label_1
_geom_bond_atom_site_label_2
_ccdc_geom_bond_type
C4    C16   S    
C11   O3    A    
C4    N4    T    
C11   O5    A    
C6    C7    S    
C7    H11   S    
C1    O1    A    
C10   H5    S    
O1    Zn1   S    
C9    C10   S    
C9    H2    S    
C6    H9    S    
C1    O4    A    
C3    N3    T    
C13   C15   S    
N1    N2    T    
O5    Zn1   S    
C12   O8    A    
C7    H12   S    
C10   H4    S    
C13   O9    A    
C9    H3    S    
C1    C18   S    
C6    H8    S    
C5    O10   S    
C8    O2    S    
C5    H7    S    
C2    C11   S    
C12   C14   S    
C5    H1    S    
C3    C17   S    
O6    Zn1   S    
O9    Zn1   S    
C5    C6    S    
C14   C16   D    
C2    C18   T    
C14   O2    S    
C8    H14   S    
C13   O7    A    
C8    C9    S    
C15   C17   D    
O7    Zn2   S    
O4    Zn2   S    
N1    Zn2   S    
C16   C17   S    
C12   O6    A    
N2    Zn1   S    
C15   O10   S    
C10   H6    S    
C8    H13   S    
C7    H10   S    
O8    Zn2   S    
O3    Zn2   S    
