data_mof_unit_pretest_1196.cif
_audit_creation_date              2013-03-05T16:30:35-0500
_audit_creation_method            fapswitch 2.2
_symmetry_space_group_name_H-M    P1
_symmetry_Int_Tables_number       1
_space_group_crystal_system       triclinic
_cell_length_a                    8.735164
_cell_length_b                    10.862046
_cell_length_c                    9.556146
_cell_angle_alpha                 90.038973
_cell_angle_beta                  97.569017
_cell_angle_gamma                 90.356265
_cell_volume                      898.785293575

loop_
_atom_site_label
_atom_site_type_symbol
_atom_site_description
_atom_site_fract_x
_atom_site_fract_y
_atom_site_fract_z
_atom_type_partial_charge
O1    O     O_R   0.500000 0.319640 0.618810 -0.588283
O2    O     O_R   0.500020 0.319680 0.381230 -0.596539
C1    C     C_R   0.498483 0.262749 0.499632 0.797063
O3    O     O_R   0.274830 0.499980 0.591380 -0.583795
O4    O     O_R   0.274850 0.500020 0.353800 -0.584840
C2    C     C_R   0.204137 0.498509 0.464223 0.876239
Cu1   Cu    Cu3+1 0.499990 0.499980 0.640670 0.948759
Cu2   Cu    Cu3+1 0.500010 0.500020 0.359330 0.973484
O5    O     O_R   0.499980 0.680320 0.618770 -0.584292
O6    O     O_R   0.500000 0.680360 0.381190 -0.565271
O7    O     O_R   0.725150 0.499980 0.646200 -0.593456
O8    O     O_R   0.725170 0.500020 0.408620 -0.573115
C3    C     C_R   0.498687 0.737278 0.499741 0.833935
C4    C     C_R   0.796056 0.499946 0.536054 0.902323
C5    C     C_2   0.038822 0.494177 0.445118 -0.304763
H1    H     H_    0.980534 0.483793 0.338687 0.164546
C6    C     C_2   0.961815 0.501408 0.556311 -0.355630
H2    H     H_    0.020764 0.509669 0.663483 0.168313
C7    C     C_R   0.500686 0.062237 0.620882 0.119022
C8    C     C_R   0.494099 0.130140 0.497469 -0.103235
C9    C     C_R   0.483023 0.064427 0.368938 -0.197502
H3    H     H_    0.475413 0.112024 0.268721 0.170486
C10   C     C_R   0.482508 0.935249 0.369100 -0.127029
H4    H     H_    0.473354 0.887303 0.269006 0.202893
C11   C     C_R   0.494310 0.869918 0.497741 -0.102784
C12   C     C_R   0.501256 0.938272 0.621090 0.098661
C13   C     C_3   0.518044 0.930016 0.777961 -0.406918
C14   C     C_3   0.516928 0.071752 0.777624 -0.446053
H5    H     H_    0.415145 0.887826 0.816468 0.204938
H6    H     H_    0.631094 0.891114 0.822753 0.219331
H7    H     H_    0.412887 0.111737 0.815330 0.190050
H8    H     H_    0.629024 0.113781 0.822691 0.209746
C15   C     C_R   0.574083 0.591550 0.082531 0.210510
N1    N     N_R   0.500980 0.500930 0.148050 -0.215447
C16   C     C_R   0.414546 0.417059 0.064041 -0.074336
H9    H     H_    0.347724 0.348334 0.111647 0.139745
C17   C     C_R   0.414248 0.417243 0.915212 -0.072308
H10   H     H_    0.346969 0.348821 0.851348 0.135059
N2    N     N_R   0.500990 0.500890 0.852140 -0.183778
C18   C     C_R   0.575138 0.590810 0.935060 0.213018
C19   C     C_3   0.743423 0.620004 0.947982 -0.552307
C20   C     C_3   0.742811 0.620693 0.106795 0.126801
H11   H     H_    0.812189 0.543002 0.912476 0.191058
H12   H     H_    0.767095 0.710742 0.901733 0.217529
H13   H     H_    0.812702 0.545917 0.160985 0.109072
N3    N     N_R   0.774853 0.742008 0.171099 0.153657
O9    O     O_R   0.703299 0.839509 0.117980 -0.402929
O10   O     O_R   0.874871 0.752737 0.284050 -0.361629

loop_
_geom_bond_atom_site_label_1
_geom_bond_atom_site_label_2
_geom_bond_distance
_ccdc_geom_bond_type
O4    Cu2   1.960549 S    
C10   H4    1.082215 S    
C5    C6    1.332870 D    
C17   H10   1.081512 S    
C13   H5    1.111562 S    
C19   C20   1.518365 S    
C16   H9    1.081631 S    
C14   H8    1.111640 S    
Cu2   O8    1.961159 S    
C13   C14   1.539646 S    
C19   H12   1.109786 S    
C9    C10   1.403119 A    
C15   N1    1.366385 A    
C11   C12   1.386996 A    
C1    C8    1.440730 S    
C17   N2    1.369454 A    
Cu2   N1    2.020186 S    
C9    H3    1.083149 S    
C13   H6    1.109508 S    
Cu1   O7    1.960550 S    
C7    C14   1.489293 S    
C19   H11   1.111343 S    
C4    C6    1.435301 S    
C3    C11   1.441558 S    
C12   C13   1.489713 S    
O3    Cu1   1.961160 S    
C15   C20   1.493429 S    
O3    C2    1.288522 A    
C18   C19   1.490986 S    
C16   C17   1.421887 A    
O8    C4    1.291416 A    
C6    H2    1.087415 S    
O2    C1    1.291378 A    
C10   C11   1.412132 A    
O4    C2    1.291090 A    
O7    C4    1.289687 A    
N3    O10   1.300798 A    
C15   C18   1.410513 A    
C5    H1    1.081248 S    
Cu1   Cu2   2.688550 S    
C8    C9    1.412128 A    
Cu2   O6    1.969828 S    
N1    C16   1.369399 A    
C20   N3    1.463341 S    
N2    C18   1.362811 A    
Cu1   O5    1.970151 S    
C7    C12   1.346553 A    
Cu1   N2    2.019723 S    
N3    O9    1.302044 A    
O5    C3    1.293974 A    
C2    C5    1.431967 S    
O1    Cu1   1.969828 S    
O6    C3    1.291651 A    
C14   H7    1.111471 S    
O2    Cu2   1.970150 S    
C7    C8    1.386377 A    
O1    C1    1.293856 A    
C20   H13   1.106364 S    
