data_mof_unit_pretest_790.cif
_audit_creation_date              2012-12-10T18:53:05-0500
_audit_creation_method            fapswitch 2.2
_symmetry_space_group_name_H-M    P1
_symmetry_Int_Tables_number       1
_space_group_crystal_system       triclinic
_cell_length_a                    9.827559
_cell_length_b                    10.718797
_cell_length_c                    16.682112
_cell_angle_alpha                 90.102649
_cell_angle_beta                  85.152164
_cell_angle_gamma                 89.979858
_cell_volume                      1750.99770586

loop_
_atom_site_label
_atom_site_type_symbol
_atom_type_description
_atom_site_fract_x
_atom_site_fract_y
_atom_site_fract_z
_atom_type_partial_charge
C1    C     C_R   0.500016 0.740170 0.500103 0.868539
C2    C     C_R   0.064948 0.579630 0.548736 -0.078619
C3    C     C_R   0.079039 0.420415 0.451280 -0.076911
C4    C     C_R   0.920959 0.579623 0.548701 -0.073449
C5    C     C_R   0.481133 0.507033 0.653265 0.861054
C6    C     C_R   0.518984 0.502129 0.346393 0.861871
C7    C     C_R   0.470035 0.550058 0.736297 -0.031181
C8    C     C_R   0.530591 0.524885 0.260110 -0.037759
C9    C     C_R   0.578702 0.618095 0.763993 -0.207173
C10   C     C_R   0.413335 0.520866 0.218019 -0.211347
C11   C     C_R   0.566702 0.669831 0.840310 -0.160571
C12   C     C_R   0.499970 0.259826 0.499984 0.872519
C13   C     C_R   0.419320 0.559827 0.138719 -0.148257
C14   C     C_R   0.447285 0.651009 0.890815 0.206426
C15   C     C_R   0.542668 0.604625 0.100671 0.206794
C16   C     C_R   0.335729 0.589248 0.861887 -0.171276
C17   C     C_R   0.661101 0.603783 0.141630 -0.181976
C18   C     C_R   0.346857 0.539063 0.784607 -0.204861
C19   C     C_R   0.655238 0.564393 0.221137 -0.197738
C20   C     C_2   0.445898 0.673515 0.977183 -0.244410
C21   C     C_2   0.553979 0.638158 0.015523 -0.230958
C22   C     C_R   0.618821 0.936093 0.516203 -0.195456
C23   C     C_R   0.381062 0.063866 0.484179 -0.196240
C24   C     C_R   0.618855 0.063912 0.516083 -0.195944
C25   C     C_R   0.381041 0.936056 0.484277 -0.193710
C26   C     C_R   0.499979 0.127397 0.500061 -0.015790
C27   C     C_R   0.499948 0.872576 0.500227 -0.011191
C28   C     C_R   0.935055 0.420391 0.451258 -0.081160
H1    H     H_    0.672646 0.632804 0.726362 0.148164
H2    H     H_    0.288787 0.112530 0.471195 0.152170
H3    H     H_    0.711148 0.112624 0.528979 0.156639
H4    H     H_    0.288750 0.887353 0.471365 0.156390
H5    H     H_    0.139334 0.356832 0.412355 0.121179
H6    H     H_    0.860665 0.643246 0.587600 0.116108
H7    H     H_    0.650934 0.617289 0.981950 0.149420
H8    H     H_    0.348500 0.693592 0.010339 0.145951
H9    H     H_    0.886020 0.356805 0.412319 0.125918
H10   H     H_    0.113988 0.643213 0.587678 0.126546
H11   H     H_    0.316434 0.489242 0.246658 0.151976
H12   H     H_    0.747123 0.568417 0.252619 0.156344
H13   H     H_    0.260572 0.490094 0.763164 0.150174
H14   H     H_    0.242961 0.574069 0.900520 0.122496
H15   H     H_    0.757771 0.634617 0.112236 0.124974
H16   H     H_    0.327788 0.552165 0.107333 0.122987
H17   H     H_    0.652570 0.720375 0.860964 0.127595
H18   H     H_    0.711075 0.887410 0.529207 0.151374
N1    N     N_R   0.142790 0.500030 0.500020 -0.076922
N2    N     N_R   0.857210 0.499970 0.499980 -0.076656
O1    O     O_R   0.385380 0.683250 0.500010 -0.625532
O2    O     O_R   0.614620 0.316750 0.499990 -0.623606
O3    O     O_R   0.614710 0.683220 0.500000 -0.628055
O4    O     O_R   0.385290 0.316780 0.500000 -0.624388
O5    O     O_R   0.371780 0.500040 0.615800 -0.614826
O6    O     O_R   0.628220 0.499960 0.384200 -0.618809
O7    O     O_R   0.601110 0.500010 0.615800 -0.618258
O8    O     O_R   0.398890 0.499990 0.384200 -0.618333
Zn1   Zn    Zn3+2 0.346870 0.500020 0.500000 0.945141
Zn2   Zn    Zn3+2 0.653130 0.499980 0.500000 0.942610

loop_
_geom_bond_atom_site_label_1
_geom_bond_atom_site_label_2
_ccdc_geom_bond_type
C2    C4    A    
C17   H15   S    
C15   C17   A    
C21   H7    S    
C16   H14   S    
C2    N1    A    
N1    Zn1   S    
C9    C11   A    
C2    H10   S    
C12   O2    A    
C9    H1    S    
C7    C18   A    
C7    C9    A    
C25   H4    S    
C23   C25   A    
C24   H3    S    
C5    C7    S    
O3    Zn2   S    
C20   C21   D    
N2    Zn2   S    
C1    O3    A    
O7    Zn2   S    
C28   H9    S    
C6    O6    A    
C6    O8    A    
C22   C24   A    
C3    N1    A    
C3    C28   A    
C22   H18   S    
C24   C26   A    
C4    H6    S    
C22   C27   A    
C13   C15   A    
C4    N2    A    
C11   C14   A    
C14   C16   A    
C11   H17   S    
C8    C19   A    
C25   C27   A    
C19   H12   S    
C3    H5    S    
C17   C19   A    
O4    Zn1   S    
C20   H8    S    
C23   H2    S    
C14   C20   S    
C15   C21   S    
O1    Zn1   S    
O8    Zn1   S    
C16   C18   A    
O6    Zn2   S    
C23   C26   A    
C5    O5    A    
C1    C27   S    
O5    Zn1   S    
C28   N2    A    
C6    C8    S    
C12   O4    A    
C13   H16   S    
C1    O1    A    
C5    O7    A    
C8    C10   A    
C18   H13   S    
C12   C26   S    
C10   H11   S    
C10   C13   A    
O2    Zn2   S    
