data_mof_unit_pretest_1981.cif
_audit_creation_date              2012-12-10T17:59:49-0500
_audit_creation_method            fapswitch 2.2
_symmetry_space_group_name_H-M    P1
_symmetry_Int_Tables_number       1
_space_group_crystal_system       triclinic
_cell_length_a                    18.617573
_cell_length_b                    18.502638
_cell_length_c                    18.742635
_cell_angle_alpha                 108.992862
_cell_angle_beta                  109.940255
_cell_angle_gamma                 108.83147
_cell_volume                      5009.10833998

loop_
_atom_site_label
_atom_site_type_symbol
_atom_type_description
_atom_site_fract_x
_atom_site_fract_y
_atom_site_fract_z
_atom_type_partial_charge
C1    C     C_R   0.620489 0.620139 0.500462 0.923916
C2    C     C_3   0.172827 0.428523 0.219849 -0.406174
C3    C     C_3   0.231242 0.503658 0.314674 0.467918
C4    C     C_3   0.311824 0.500116 0.313134 -0.168375
C5    C     C_R   0.764984 0.749653 0.580039 0.528729
C6    C     C_R   0.829858 0.811902 0.578498 -0.288785
C7    C     C_R   0.813979 0.813300 0.500608 -0.078614
C8    C     C_R   0.735087 0.751339 0.423267 -0.171935
C9    C     C_R   0.672095 0.686825 0.423470 -0.283326
C10   C     C_R   0.687215 0.686331 0.501459 -0.113821
C11   C     C_R   0.679695 0.499739 0.758653 -0.189393
C12   C     C_R   0.378769 0.499725 0.379595 0.944095
C13   C     C_R   0.743728 0.498973 0.822685 -0.168380
C14   C     C_R   0.816607 0.500559 0.815968 -0.001500
C15   C     C_R   0.825495 0.501667 0.745199 -0.170423
C16   C     C_R   0.760089 0.499724 0.679775 -0.159497
C17   C     C_R   0.687828 0.499404 0.687173 -0.010654
C18   C     C_R   0.243985 0.325690 0.503779 -0.288990
C19   C     C_R   0.177612 0.260849 0.501118 0.450534
C20   C     C_R   0.185312 0.187545 0.500093 -0.108634
C21   C     C_R   0.254902 0.176315 0.496484 -0.280833
C22   C     C_R   0.317978 0.238746 0.494277 -0.186482
C23   C     C_R   0.379714 0.379739 0.499891 0.892934
C24   C     C_R   0.312799 0.313594 0.499057 -0.069279
C25   C     C_R   0.002029 0.620143 0.121851 1.080541
C26   C     C_R   0.124258 0.499537 0.124252 0.988897
C27   C     C_R   0.003956 0.379771 0.883690 0.965765
C28   C     C_R   0.882906 0.500164 0.882547 0.896808
C29   C     C_R   0.001648 0.879833 0.380985 1.007613
C30   C     C_R   0.879866 0.879445 0.499992 0.891438
C31   C     C_R   0.999801 0.121102 0.619096 0.934835
C32   C     C_R   0.119936 0.121240 0.500763 0.889271
C33   C     C_R   0.996949 0.756254 0.176123 0.313500
C34   C     C_R   0.621228 0.499828 0.620900 0.883690
C35   C     C_R   0.000790 0.822988 0.242044 0.391707
C36   C     C_R   0.007299 0.816812 0.316848 -0.399508
C37   C     C_R   0.019059 0.749985 0.330358 0.297976
C38   C     C_R   0.011738 0.681778 0.263048 0.368198
C39   C     C_R   0.002540 0.686724 0.187755 -0.379246
C40   C     C_R   0.081224 0.318910 0.824742 -0.345431
C41   C     C_R   0.081587 0.256864 0.759373 0.545428
C42   C     C_R   0.001346 0.189368 0.684957 -0.195298
C43   C     C_R   0.922218 0.186210 0.674452 -0.380039
C44   C     C_R   0.921759 0.247590 0.740912 0.482701
C45   C     C_3   0.329650 0.570724 0.284637 -0.416234
C46   C     C_R   0.001965 0.314014 0.815437 -0.196842
C47   C     C_3   0.248028 0.573001 0.285957 0.457532
C48   C     C_3   0.190243 0.498923 0.191371 -0.180779
C49   C     C_3   0.270379 0.494905 0.189968 0.582477
C50   C     C_3   0.254285 0.424482 0.218091 -0.267599
H1    H     H_    0.611200 0.638076 0.363351 0.153325
H2    H     H_    0.623426 0.499289 0.764033 0.144797
H3    H     H_    0.737252 0.498453 0.877855 0.146701
H4    H     H_    0.881960 0.502469 0.740066 0.148609
H5    H     H_    0.766368 0.500015 0.624460 0.149851
H6    H     H_    0.241632 0.384838 0.508825 0.169273
H7    H     H_    0.259545 0.118769 0.494169 0.156147
H8    H     H_    0.371745 0.229854 0.491003 0.154757
H9    H     H_    0.394795 0.627258 0.312393 0.150831
H10   H     H_    0.142684 0.370472 0.882961 0.198914
H11   H     H_    0.861101 0.135501 0.615511 0.176169
H12   H     H_    0.259355 0.364302 0.192061 0.171753
H13   H     H_    0.107950 0.371561 0.191997 0.179188
H14   H     H_    0.891951 0.859227 0.637719 0.162574
H15   H     H_    0.723024 0.751991 0.362743 0.161854
O1    O     O_R   0.592040 0.539900 0.448690 -0.629993
O2    O     O_R   0.054890 0.643310 0.094620 -0.626039
O3    O     O_R   0.044450 0.448260 0.096050 -0.646714
O4    O     O_R   0.147910 0.551670 0.096030 -0.589835
O5    O     O_R   0.952840 0.356630 0.912840 -0.614883
O6    O     O_R   0.056290 0.460040 0.912820 -0.628093
O7    O     O_R   0.859820 0.448260 0.911420 -0.632331
O8    O     O_R   0.963280 0.551670 0.911400 -0.640748
O9    O     O_R   0.052810 0.908290 0.461080 -0.612141
O10   O     O_R   0.948580 0.908330 0.356880 -0.585655
O11   O     O_R   0.960490 0.908280 0.552000 -0.621838
O12   O     O_R   0.591220 0.643330 0.551330 -0.614036
O13   O     O_R   0.856260 0.908310 0.447800 -0.637568
O14   O     O_R   0.051420 0.091500 0.642940 -0.581581
O15   O     O_R   0.947190 0.091540 0.538750 -0.630963
O16   O     O_R   0.143740 0.091510 0.552020 -0.630952
O17   O     O_R   0.039510 0.091550 0.447830 -0.604748
O18   O     O_R   0.408100 0.448290 0.356370 -0.641841
O19   O     O_R   0.407270 0.551710 0.459000 -0.604773
O20   O     O_R   0.408780 0.356670 0.448670 -0.629571
O21   O     O_R   0.407960 0.460100 0.551310 -0.619373
O22   O     O_R   0.592730 0.448290 0.541000 -0.628773
O23   O     O_R   0.591900 0.551710 0.643630 -0.613621
O24   O     O_R   0.951430 0.539890 0.094630 -0.620570
Zn1   Zn    Zn3+2 0.500550 0.430940 0.431470 0.943696
Zn2   Zn    Zn3+2 0.499450 0.569060 0.568530 0.971036
Zn3   Zn    Zn3+2 0.934780 0.430920 0.003740 0.943469
Zn4   Zn    Zn3+2 0.072940 0.569020 0.003710 0.974524
Zn5   Zn    Zn3+2 0.069600 0.999890 0.569480 0.974484
Zn6   Zn    Zn3+2 0.930400 0.999940 0.430340 0.973047
O25   O     O_3   0.236556 0.646962 0.313887 -0.601954
C51   C     C_3   0.302495 0.708223 0.400804 -0.298235
H16   H     H_    0.368199 0.734093 0.406535 0.162623
H17   H     H_    0.301266 0.680046 0.444763 0.195634
H18   H     H_    0.290535 0.764323 0.422844 0.167671
O26   O     O_3   0.110331 0.272614 0.508876 -0.629567
C52   C     C_3   0.054620 0.267597 0.431941 0.111310
H19   H     H_    0.032139 0.206069 0.373265 0.145735
H20   H     H_    0.088087 0.324933 0.425442 0.135759
C53   C     C_3   0.974371 0.267766 0.435704 -0.804279
H21   H     H_    0.994400 0.329017 0.492781 0.254084
H22   H     H_    0.929842 0.263743 0.375511 0.194963
H23   H     H_    0.938889 0.210675 0.441386 0.266192
O27   O     O_3   0.975103 0.750980 0.095253 -0.579700
C54   C     C_3   0.046481 0.814157 0.099672 0.164738
H24   H     H_    0.111330 0.828093 0.148089 0.111708
H25   H     H_    0.042849 0.875646 0.115630 0.178566
C55   C     C_3   0.040124 0.781477 0.010863 -0.816023
H26   H     H_    0.975167 0.764077 0.960203 0.265594
H27   H     H_    0.091987 0.833460 0.011904 0.192011
H28   H     H_    0.049251 0.723092 0.994299 0.276059
O28   O     O_3   0.992724 0.890724 0.230330 -0.558191
C56   C     C_3   0.075862 0.966897 0.281724 -0.311069
H29   H     H_    0.126927 0.954872 0.270608 0.111733
H30   H     H_    0.097424 0.994141 0.351961 0.151133
H31   H     H_    0.071228 0.017573 0.264092 0.191078
O29   O     O_3   0.029377 0.747291 0.406066 -0.582134
C57   C     C_3   0.117825 0.772853 0.459149 0.163138
H32   H     H_    0.162589 0.838920 0.473104 0.126216
H33   H     H_    0.136261 0.724972 0.428153 0.179687
C58   C     C_3   0.130734 0.776707 0.545148 -0.833839
H34   H     H_    0.088050 0.711203 0.533395 0.255887
H35   H     H_    0.200057 0.796883 0.587582 0.193603
H36   H     H_    0.114045 0.824898 0.578687 0.265819
O30   O     O_3   0.020552 0.613490 0.272867 -0.596235
C59   C     C_3   0.942175 0.554965 0.262608 -0.248542
H37   H     H_    0.944982 0.494575 0.257353 0.156970
H38   H     H_    0.883595 0.535439 0.202107 0.158118
H39   H     H_    0.934772 0.583017 0.320097 0.197573
O31   O     O_3   0.160144 0.260519 0.770011 -0.595801
C60   C     C_3   0.194152 0.312923 0.736956 -0.272004
H40   H     H_    0.148313 0.285615 0.666750 0.187584
H41   H     H_    0.255844 0.313859 0.742894 0.192871
H42   H     H_    0.209871 0.381692 0.774898 0.159539
O32   O     O_3   0.844938 0.248944 0.730281 -0.602704
C61   C     C_3   0.790395 0.175942 0.731074 0.116352
H43   H     H_    0.826787 0.169307 0.787595 0.134766
H44   H     H_    0.761773 0.114711 0.669574 0.128959
C62   C     C_3   0.715821 0.188023 0.738710 -0.803701
H45   H     H_    0.677218 0.193619 0.682690 0.255782
H46   H     H_    0.672087 0.130914 0.739096 0.190739
H47   H     H_    0.742406 0.248363 0.800106 0.266302
O33   O     O_3   0.283815 0.489230 0.119126 -0.598334
C63   C     C_3   0.362748 0.487561 0.135465 -0.289177
H48   H     H_    0.360765 0.429694 0.142622 0.159861
H49   H     H_    0.419793 0.549048 0.193876 0.154278
H50   H     H_    0.372138 0.482252 0.078986 0.193137
O34   O     O_3   0.217636 0.510350 0.385628 -0.614462
C64   C     C_3   0.132820 0.498799 0.363681 0.092122
H51   H     H_    0.083317 0.428440 0.318378 0.132560
H52   H     H_    0.117610 0.538371 0.333119 0.210204
C65   C     C_3   0.126131 0.527994 0.445849 -0.830478
H53   H     H_    0.173865 0.598646 0.491506 0.255109
H54   H     H_    0.059099 0.517794 0.429048 0.209678
H55   H     H_    0.140085 0.489508 0.478132 0.255671
O35   O     O_3   0.779971 0.744149 0.655267 -0.608965
C66   C     C_3   0.785850 0.817791 0.716660 -0.296865
H56   H     H_    0.728492 0.827100 0.688504 0.155044
H57   H     H_    0.847874 0.878062 0.743732 0.150358
H58   H     H_    0.786141 0.806970 0.771578 0.198947

loop_
_geom_bond_atom_site_label_1
_geom_bond_atom_site_label_2
_ccdc_geom_bond_type
C65   H53   S    
C40   H10   S    
C31   C42   S    
C57   H32   S    
C41   C42   A    
O9    Zn5   S    
C35   C36   A    
C25   O2    A    
O8    Zn4   S    
C59   H39   S    
C56   H30   S    
O35   C66   S    
O10   Zn6   S    
C31   O15   A    
O1    Zn1   S    
C40   C46   A    
C32   O16   A    
C53   H22   S    
C29   C36   S    
O3    Zn3   S    
C33   C39   A    
C18   C24   A    
C63   H48   S    
C38   O30   S    
C36   C37   A    
C55   H26   S    
O4    Zn4   S    
O21   Zn2   S    
C63   H49   S    
C5    C6    A    
O7    Zn3   S    
C57   H33   S    
C11   C13   A    
C15   C16   A    
C3    O34   S    
C1    O12   A    
C12   O19   A    
C52   C53   S    
C18   C19   A    
C6    H14   S    
C54   H24   S    
C11   H2    S    
C2    C50   S    
O11   Zn5   S    
C56   H29   S    
C61   H43   S    
O12   Zn2   S    
C19   C20   A    
C8    C9    A    
C23   O21   A    
C9    H1    S    
C47   O25   S    
O19   Zn2   S    
C4    C12   S    
C9    C10   A    
C64   H52   S    
C26   C48   S    
C55   H28   S    
C8    H15   S    
C65   H54   S    
C7    C30   S    
C13   C14   A    
C28   O7    A    
C62   H47   S    
C28   O8    A    
C51   H17   S    
O26   C52   S    
C44   C46   A    
C51   H16   S    
C13   H3    S    
C4    C45   S    
C45   C47   S    
C53   H23   S    
C15   H4    S    
O31   C60   S    
O33   C63   S    
C64   C65   S    
C62   H46   S    
C61   C62   S    
C16   C17   A    
C57   C58   S    
C29   O9    A    
C58   H36   S    
C2    C48   S    
C12   O18   A    
C4    C50   S    
O24   Zn3   S    
C56   H31   S    
C60   H42   S    
C43   C44   A    
C21   H7    S    
C37   C38   A    
C66   H58   S    
C30   O11   A    
C47   C48   S    
O23   Zn2   S    
C45   C49   S    
O13   Zn6   S    
C23   C24   S    
O25   C51   S    
C1    O1    A    
C34   O23   A    
O32   C61   S    
O15   Zn6   S    
C52   H20   S    
C54   C55   S    
C64   H51   S    
C27   O5    A    
O14   Zn5   S    
C29   O10   A    
C63   H50   S    
C27   C46   S    
C60   H41   S    
C40   C41   A    
C65   H55   S    
C23   O20   A    
C50   H12   S    
C22   C24   A    
C35   O28   S    
C33   O27   S    
C42   C43   A    
C3    C4    S    
C41   O31   S    
C51   H18   S    
C27   O6    A    
C2    H13   S    
C43   H11   S    
C66   H56   S    
C20   C32   S    
O18   Zn1   S    
C11   C17   A    
C58   H35   S    
O17   Zn6   S    
O5    Zn3   S    
C1    C10   S    
C62   H45   S    
C59   H38   S    
C22   H8    S    
O20   Zn1   S    
C31   O14   A    
C6    C7    A    
O6    Zn4   S    
C18   H6    S    
C32   O17   A    
C53   H21   S    
C25   O24   A    
C26   O3    A    
C61   H44   S    
C2    C3    S    
O29   C57   S    
C16   H5    S    
C5    C10   A    
C66   H57   S    
O28   C56   S    
C25   C39   S    
O16   Zn5   S    
C19   O26   S    
C38   C39   A    
C58   H34   S    
C48   C49   S    
C3    C47   S    
C33   C35   A    
C45   H9    S    
O30   C59   S    
C34   O22   A    
C52   H19   S    
C54   H25   S    
C7    C8    A    
C37   O29   S    
C30   O13   A    
C20   C21   A    
C49   O33   S    
C44   O32   S    
C49   C50   S    
C17   C34   S    
O22   Zn1   S    
O27   C54   S    
O2    Zn4   S    
C26   O4    A    
C14   C15   A    
C60   H40   S    
C14   C28   S    
O34   C64   S    
C21   C22   A    
C59   H37   S    
C5    O35   S    
C55   H27   S    
