data_mof_unit_pretest_618.cif
_audit_creation_date              2012-12-11T14:57:52-0500
_audit_creation_method            fapswitch 2.2
_symmetry_space_group_name_H-M    P1
_symmetry_Int_Tables_number       1
_space_group_crystal_system       triclinic
_cell_length_a                    6.935145
_cell_length_b                    16.676697
_cell_length_c                    17.200484
_cell_angle_alpha                 100.355323
_cell_angle_beta                  91.755955
_cell_angle_gamma                 89.460921
_cell_volume                      1955.99070404

loop_
_atom_site_label
_atom_site_type_symbol
_atom_type_description
_atom_site_fract_x
_atom_site_fract_y
_atom_site_fract_z
_atom_type_partial_charge
O1    O     O_R   0.506180 0.438940 0.579430 -0.547764
O2    O     O_R   0.170520 0.406230 0.413590 -0.521867
O3    O     O_R   0.005180 0.561060 0.420570 -0.475842
C1    C     C_R   0.340848 0.379470 0.388512 0.826675
O4    O     O_R   0.176140 0.429310 0.578370 -0.537194
O5    O     O_R   0.010830 0.584300 0.586530 -0.554729
C2    C     C_R   0.346913 0.416096 0.606692 0.773582
O6    O     O_R   0.500520 0.415700 0.413470 -0.537000
O7    O     O_3   0.340830 0.550820 0.502480 -0.341174
V1    V     V_3+5 0.064040 0.490570 0.499540 1.582494
O8    O     O_R   0.681400 0.593770 0.586410 -0.540525
C3    C     C_R   0.851889 0.612704 0.618331 0.667792
O9    O     O_R   0.675790 0.570690 0.421630 -0.508802
C4    C     C_R   0.840861 0.586413 0.394636 0.873938
V2    V     V_3+5 0.564650 0.509430 0.500460 1.598924
O10   O     O_3   0.837730 0.449180 0.497520 -0.396640
C5    C     C_R   0.931961 0.860290 0.166390 -0.204584
C6    C     C_R   0.835532 0.639374 0.333012 -0.414633
C7    C     C_R   0.652628 0.693761 0.229677 0.582809
C8    C     C_R   0.670127 0.639512 0.282889 0.480585
C9    C     C_R   0.986017 0.693937 0.326962 0.574588
C10   C     C_R   0.968139 0.749317 0.273676 -0.159414
C11   C     C_R   0.799695 0.749710 0.224985 -0.148720
C12   C     C_R   0.782186 0.805522 0.172108 -0.071880
C13   C     C_R   0.097768 0.859754 0.216130 0.605783
C14   C     C_R   0.115088 0.805162 0.268848 -0.056718
H1    H     H_    0.654947 0.804887 0.133817 0.209829
H2    H     H_    0.245007 0.806630 0.305703 0.191958
C15   C     C_R   0.824123 0.909073 0.721329 0.544740
C16   C     C_R   0.792338 0.921316 0.643973 -0.185812
C17   C     C_R   0.790960 0.855824 0.581732 -0.204802
C18   C     C_R   0.817573 0.777072 0.596278 -0.112368
C19   C     C_R   0.847519 0.761631 0.674299 0.002506
C20   C     C_R   0.856489 0.829264 0.738106 -0.048002
C21   C     C_R   0.869306 0.680288 0.688345 -0.091515
C22   C     C_R   0.901556 0.665852 0.768260 0.021193
C23   C     C_R   0.903626 0.734781 0.831392 -0.063430
C24   C     C_R   0.894138 0.815561 0.816198 -0.120381
C25   C     C_R   0.932296 0.586199 0.789259 0.091291
C26   C     C_R   0.931231 0.576925 0.870050 0.132211
C27   C     C_R   0.918643 0.645585 0.929276 0.650244
C28   C     C_R   0.911542 0.722515 0.910463 -0.264545
H3    H     H_    0.768418 0.982358 0.632253 0.149728
H4    H     H_    0.767500 0.865986 0.521729 0.148018
H5    H     H_    0.814326 0.728661 0.545162 0.114484
H6    H     H_    0.907591 0.772788 0.959847 0.122683
C29   C     C_R   0.497937 0.210080 0.404003 0.130889
C30   C     C_R   0.567862 0.131893 0.408416 -0.201085
C31   C     C_R   0.581089 0.072986 0.342107 -0.175115
C32   C     C_R   0.528205 0.090059 0.268966 0.614927
C33   C     C_R   0.460632 0.169229 0.259650 -0.099151
C34   C     C_R   0.438784 0.231413 0.328830 -0.001891
C35   C     C_R   0.410740 0.185500 0.183135 -0.147571
C36   C     C_R   0.327456 0.262166 0.174715 -0.113688
C37   C     C_R   0.307875 0.325367 0.242343 -0.141985
C38   C     C_R   0.357766 0.310037 0.319777 -0.119275
C39   C     C_R   0.263099 0.278197 0.099413 0.529784
C40   C     C_R   0.193248 0.354372 0.090349 -0.266048
C41   C     C_R   0.184599 0.417598 0.154673 -0.029459
C42   C     C_R   0.240990 0.403792 0.229834 0.621014
H7    H     H_    0.612435 0.115381 0.464443 0.147930
H8    H     H_    0.632683 0.012642 0.347494 0.159534
H9    H     H_    0.146883 0.364095 0.031995 0.170251
C43   C     C_R   0.401965 0.137211 0.832338 -0.059733
C44   C     C_R   0.364380 0.366517 0.670089 -0.264310
C45   C     C_R   0.494739 0.349931 0.798331 -0.240594
C46   C     C_R   0.468375 0.397047 0.739676 0.519193
C47   C     C_R   0.284832 0.287945 0.660623 0.472610
C48   C     C_R   0.336406 0.234667 0.714163 -0.040879
C49   C     C_R   0.433356 0.267881 0.786619 -0.054010
C50   C     C_R   0.467109 0.219283 0.845842 0.129580
C51   C     C_R   0.321791 0.101827 0.757187 0.096024
C52   C     C_R   0.297733 0.149509 0.696717 0.192265
H10   H     H_    0.566662 0.378611 0.852537 0.162747
O11   O     O_R   0.265840 0.084300 0.086750 -0.507162
O12   O     O_R   0.589750 0.070740 0.921690 -0.529696
O13   O     O_R   0.755020 0.915730 0.913400 -0.531454
C53   C     C_R   0.418487 0.086893 0.895759 0.785629
O14   O     O_R   0.595830 0.093740 0.086480 -0.540080
O15   O     O_R   0.761150 0.938890 0.079360 -0.519255
C54   C     C_R   0.426354 0.118813 0.112806 0.938839
O16   O     O_R   0.259710 0.061140 0.920790 -0.527137
O17   O     O_3   0.425260 0.949200 0.997610 -0.372897
V3    V     V_3+5 0.702060 0.009430 0.000450 1.598453
O18   O     O_R   0.090530 0.929220 0.078150 -0.509846
C55   C     C_R   0.925647 0.913450 0.105105 0.765043
O19   O     O_R   0.084440 0.906220 0.913360 -0.561581
C56   C     C_R   0.913501 0.885280 0.883531 0.785578
V4    V     V_3+5 0.201450 0.990520 0.999290 1.627492
O20   O     O_3   0.928380 0.050800 0.002390 -0.364377
C57   C     C_3   0.988051 0.512961 0.728877 -0.594085
H11   H     H_    0.034081 0.458816 0.753451 0.188584
H12   H     H_    0.866509 0.492288 0.687049 0.224887
H13   H     H_    0.117381 0.529819 0.699673 0.194371
C58   C     C_3   0.948204 0.494446 0.894815 -0.693445
H14   H     H_    0.909224 0.496461 0.957150 0.237793
H15   H     H_    0.848090 0.450712 0.858438 0.219219
H16   H     H_    0.098587 0.471379 0.887844 0.200625
C59   C     C_3   0.114355 0.500645 0.143781 -0.488201
H17   H     H_    0.078115 0.502512 0.080894 0.194930
H18   H     H_    0.983289 0.517300 0.178733 0.198002
H19   H     H_    0.228194 0.546643 0.164257 0.290440
C60   C     C_3   0.492543 0.266156 0.482081 -0.714287
H20   H     H_    0.603484 0.313612 0.484485 0.221685
H21   H     H_    0.344471 0.289910 0.491153 0.214468
H22   H     H_    0.529528 0.235417 0.532745 0.196195
F1    F     F_    0.540704 0.026045 0.208427 -0.662106
F2    F     F_    0.244490 0.912570 0.214255 -0.645726
F3    F     F_    0.262737 0.220808 0.032884 -0.731816
F4    F     F_    0.233314 0.469409 0.289110 -0.633923
C61   C     C_3   0.569751 0.256623 0.923137 -0.669657
H23   H     H_    0.717111 0.275760 0.910956 0.193194
H24   H     H_    0.487547 0.310477 0.952570 0.213730
H25   H     H_    0.586741 0.215593 0.966578 0.221437
C62   C     C_3   0.273286 0.011387 0.741402 -0.722066
H26   H     H_    0.196702 0.989837 0.684260 0.211948
H27   H     H_    0.407678 0.975062 0.743421 0.209622
H28   H     H_    0.175483 0.997065 0.786465 0.241587
C63   C     C_3   0.254071 0.106911 0.612306 -0.652124
H29   H     H_    0.341560 0.050373 0.598061 0.174050
H30   H     H_    0.098148 0.092157 0.604175 0.222069
H31   H     H_    0.297995 0.142372 0.567438 0.242092
F5    F     F_    0.535569 0.474637 0.752861 -0.703793
F6    F     F_    0.151197 0.265687 0.601475 -0.701577
F7    F     F_    0.490379 0.691787 0.183080 -0.639376
F8    F     F_    0.523866 0.586520 0.285005 -0.582337
F9    F     F_    0.146065 0.695462 0.374853 -0.638813
F10   F     F_    0.921416 0.638831 0.006874 -0.682340
F11   F     F_    0.817753 0.976311 0.778807 -0.722473

loop_
_geom_bond_atom_site_label_1
_geom_bond_atom_site_label_2
_ccdc_geom_bond_type
O19   C56   A    
C27   C28   A    
C52   C63   S    
C6    C9    A    
C41   C59   S    
C18   H5    S    
C4    C6    S    
O2    C1    A    
C7    C8    A    
C12   H1    S    
O15   V3    S    
O12   V3    S    
C30   H7    S    
C58   H16   S    
C17   C18   A    
O18   C55   A    
C51   C62   S    
C15   C16   A    
O16   V4    S    
C22   C23   A    
O12   C53   A    
O5    C3    A    
O14   V3    S    
C2    C44   S    
C62   H26   S    
C45   H10   S    
C35   C54   S    
C28   H6    S    
C43   C50   A    
C23   C28   A    
O15   C55   A    
O8    V2    S    
C39   F3    S    
C29   C30   A    
O13   C56   A    
C47   C48   A    
C62   H27   S    
C50   C61   S    
C11   C12   A    
C48   C52   A    
C49   C50   A    
O1    V2    S    
O9    C4    A    
C9    F9    S    
O7    V1    S    
C1    O6    A    
C44   C47   A    
C45   C46   A    
C41   C42   A    
O1    C2    A    
C37   C42   A    
C1    C38   S    
C27   F10   S    
C47   F6    S    
V3    O20   S    
C25   C57   S    
C32   C33   A    
C63   H30   S    
O17   V4    S    
C15   F11   S    
C5    C12   A    
C29   C60   S    
C17   H4    S    
C33   C34   A    
C60   H21   S    
C57   H11   S    
O4    C2    A    
O18   V4    S    
O11   C54   A    
O13   V3    S    
C44   C46   A    
C13   C14   A    
C35   C36   A    
C15   C20   A    
C7    F7    S    
C5    C55   S    
C24   C56   S    
C33   C35   A    
C21   C22   A    
C60   H22   S    
C7    C11   A    
C8    F8    S    
C23   C24   A    
C57   H12   S    
C53   O16   A    
O17   V3    S    
C63   H29   S    
C62   H28   S    
C37   C38   A    
C19   C20   A    
C61   H24   S    
C3    C21   S    
O3    C4    A    
C26   C27   A    
C59   H18   S    
O6    V2    S    
O19   V4    S    
C32   F1    S    
C16   H3    S    
C26   C58   S    
O2    V1    S    
C25   C26   A    
O14   C54   A    
C63   H31   S    
C40   H9    S    
C36   C37   A    
C30   C31   A    
C31   H8    S    
C61   H23   S    
C20   C24   A    
C43   C53   S    
C22   C25   A    
C51   C52   A    
C46   F5    S    
O5    V1    S    
O8    C3    A    
C58   H15   S    
C29   C34   A    
C45   C49   A    
C14   H2    S    
C59   H17   S    
C5    C13   A    
C18   C19   A    
O9    V2    S    
C40   C41   A    
O4    V1    S    
O3    V1    S    
V1    O10   S    
C57   H13   S    
C39   C40   A    
C16   C17   A    
V2    O10   S    
C19   C21   A    
C61   H25   S    
C6    C8    A    
C43   C51   A    
O7    V2    S    
C48   C49   A    
C42   F4    S    
O11   V4    S    
C59   H19   S    
C31   C32   A    
C10   C14   A    
C60   H20   S    
C10   C11   A    
V4    O20   S    
C9    C10   A    
C58   H14   S    
C34   C38   A    
C13   F2    S    
C36   C39   A    
