data_mof_unit_pretest_91.cif
_audit_creation_date              2012-12-10T17:29:17-0500
_audit_creation_method            fapswitch 2.2
_symmetry_space_group_name_H-M    P1
_symmetry_Int_Tables_number       1
_space_group_crystal_system       triclinic
_cell_length_a                    12.033369
_cell_length_b                    12.865091
_cell_length_c                    13.196661
_cell_angle_alpha                 87.533236
_cell_angle_beta                  113.949401
_cell_angle_gamma                 92.352105
_cell_volume                      1864.7366732

loop_
_atom_site_label
_atom_site_type_symbol
_atom_type_description
_atom_site_fract_x
_atom_site_fract_y
_atom_site_fract_z
_atom_type_partial_charge
C1    C     C_R   0.479937 0.299514 0.502130 0.892682
C2    C     C_R   0.561381 0.504411 0.988825 0.086185
C3    C     C_R   0.543525 0.539116 0.880772 0.055745
C4    C     C_R   0.472471 0.528217 0.028414 0.084782
C5    C     C_R   0.376992 0.596399 0.965786 0.141810
C6    C     C_R   0.372172 0.641598 0.866538 -0.208723
C7    C     C_R   0.455548 0.614248 0.825354 -0.152975
C8    C     C_R   0.475012 0.485568 0.128167 -0.245834
C9    C     C_R   0.299591 0.582698 0.108448 -0.174596
C10   C     C_R   0.612979 0.496707 0.829599 -0.113155
C11   C     C_R   0.541667 0.811761 0.528390 -0.167292
C12   C     C_R   0.567758 0.498569 0.708772 0.845494
C13   C     C_R   0.478403 0.189501 0.524610 -0.089448
C14   C     C_R   0.405459 0.040877 0.598805 -0.017229
C15   C     C_R   0.400640 0.146291 0.570421 -0.224890
C16   C     C_R   0.569232 0.130947 0.517048 -0.198678
C17   C     C_R   0.575565 0.025561 0.543745 0.089168
C18   C     C_R   0.481285 0.977633 0.569117 0.032493
C19   C     C_R   0.457042 0.870820 0.550903 -0.079769
C20   C     C_R   0.648446 0.858938 0.528142 -0.243771
C21   C     C_R   0.666357 0.965945 0.534407 -0.036476
C22   C     C_R   0.993419 0.574525 0.378479 -0.346028
C23   C     C_R   0.523076 0.700825 0.507255 0.910924
C24   C     C_R   0.114863 0.570800 0.390410 0.136518
C25   C     C_R   0.166467 0.470476 0.557570 -0.038210
C26   C     C_R   0.043462 0.472298 0.546887 0.085108
C27   C     C_R   0.956799 0.525814 0.456111 0.068249
C28   C     C_R   0.834536 0.529442 0.444210 -0.029929
C29   C     C_R   0.880945 0.426789 0.608269 0.041436
C30   C     C_R   0.003939 0.421887 0.623507 -0.296649
C31   C     C_R   0.433153 0.503981 0.291190 0.884890
C32   C     C_R   0.289267 0.620591 0.004864 -0.186691
C33   C     C_R   0.395542 0.518664 0.172055 -0.065067
C34   C     C_R   0.716012 0.439130 0.892845 -0.170085
C35   C     C_R   0.744899 0.417759 0.004626 -0.095954
C36   C     C_R   0.667070 0.447437 0.052052 -0.180508
H1    H     H_    0.237300 0.608404 0.140809 0.197238
H2    H     H_    0.716366 0.812657 0.518055 0.202977
H3    H     H_    0.630942 0.167151 0.484238 0.186953
H4    H     H_    0.768598 0.572326 0.375001 0.137760
H5    H     H_    0.926987 0.615600 0.307597 0.176081
H6    H     H_    0.303223 0.697280 0.820124 0.181164
H7    H     H_    0.233119 0.428305 0.626848 0.140930
H8    H     H_    0.216112 0.672437 0.957675 0.153606
H9    H     H_    0.541986 0.429803 0.176598 0.148664
H10   H     H_    0.771694 0.407609 0.855022 0.155610
H11   H     H_    0.693399 0.426637 0.138549 0.134496
H12   H     H_    0.825045 0.373969 0.053589 0.158867
N1    N     N_R   0.798200 0.480260 0.519790 -0.104865
N2    N     N_R   0.201820 0.519740 0.480210 -0.123588
O1    O     O_R   0.579910 0.341070 0.505280 -0.617921
O2    O     O_R   0.388440 0.353740 0.492580 -0.620889
O3    O     O_R   0.643280 0.490550 0.663120 -0.619644
O4    O     O_R   0.451810 0.503220 0.650420 -0.619900
O5    O     O_R   0.611560 0.646260 0.507420 -0.622146
O6    O     O_R   0.420090 0.658930 0.494720 -0.552822
O7    O     O_R   0.548190 0.496780 0.349580 -0.624380
O8    O     O_R   0.356720 0.509450 0.336880 -0.606658
Zn1   Zn    Zn3+2 0.627850 0.491540 0.508480 0.956787
Zn2   Zn    Zn3+2 0.372150 0.508460 0.491520 0.998318
C37   C     C_2   0.340903 0.001997 0.668514 0.912442
O9    O     O_2   0.244454 0.039490 0.656754 -0.608112
O10   O     O_R   0.393010 0.924957 0.750609 -0.794328
H13   H     H_    0.341163 0.905330 0.793161 0.349134
C38   C     C_2   0.780724 0.012499 0.532068 0.904813
O11   O     O_2   0.830139 0.971392 0.479892 -0.605356
O12   O     O_R   0.834448 0.101133 0.592778 -0.806631
H14   H     H_    0.912124 0.124801 0.585033 0.361246
H15   H     H_    0.340687 0.195590 0.588908 0.183574
H16   H     H_    0.851990 0.388480 0.668384 0.139610
H17   H     H_    0.067359 0.379374 0.694753 0.159136
C39   C     C_2   0.140495 0.621461 0.299853 0.916460
O13   O     O_2   0.073655 0.602051 0.203903 -0.666103
O14   O     O_R   0.230350 0.699368 0.321749 -0.766985
H18   H     H_    0.229867 0.736565 0.252341 0.331091
H19   H     H_    0.451563 0.652723 0.749856 0.218037
C40   C     C_2   0.332947 0.829844 0.533028 1.003209
O15   O     O_2   0.318829 0.762806 0.595469 -0.628510
O16   O     O_R   0.231682 0.873814 0.448024 -0.771517
H20   H     H_    0.152058 0.841933 0.445257 0.358625

loop_
_geom_bond_atom_site_label_1
_geom_bond_atom_site_label_2
_ccdc_geom_bond_type
O5    Zn1   S    
C14   C18   A    
C35   C36   A    
C4    C8    A    
C25   H7    S    
C30   H17   S    
O3    Zn1   S    
C23   O6    A    
C29   N1    A    
C40   O15   D    
C11   C19   A    
C26   C27   A    
C31   O8    A    
C18   C19   A    
C3    C7    A    
C5    C6    A    
O7    Zn1   S    
C22   H5    S    
C28   H4    S    
O8    Zn2   S    
C36   H11   S    
C19   C40   S    
C34   C35   A    
C37   O10   S    
C8    H9    S    
O2    Zn2   S    
C9    C32   A    
C25   N2    A    
C16   C17   A    
C38   O12   S    
C31   C33   S    
C34   H10   S    
C12   O3    A    
C5    C32   A    
C9    C33   A    
C35   H12   S    
C40   O16   S    
C24   N2    A    
C15   H15   S    
C11   C20   A    
O14   H18   S    
O12   H14   S    
C39   O14   S    
C39   O13   D    
O4    Zn2   S    
C25   C26   A    
O10   H13   S    
C14   C37   S    
C17   C21   A    
O6    Zn2   S    
C2    C4    A    
C29   C30   A    
C20   H2    S    
C28   N1    A    
C9    H1    S    
C17   C18   A    
C32   H8    S    
C10   C34   A    
C1    O1    A    
C6    C7    A    
C10   C12   S    
C26   C30   A    
C22   C27   A    
C13   C15   A    
C22   C24   A    
C1    C13   S    
C24   C39   S    
C29   H16   S    
C2    C36   A    
C21   C38   S    
C4    C5    A    
C23   O5    A    
C7    H19   S    
N1    Zn1   S    
N2    Zn2   S    
C31   O7    A    
C2    C3    A    
C3    C10   A    
C11   C23   S    
C8    C33   A    
C37   O9    D    
C1    O2    A    
C16   H3    S    
O16   H20   S    
O1    Zn1   S    
C20   C21   A    
C38   O11   D    
C6    H6    S    
C13   C16   A    
C27   C28   A    
C14   C15   A    
C12   O4    A    
