data_mof_unit_pretest_231.cif
_audit_creation_date              2013-03-05T15:46:58-0500
_audit_creation_method            fapswitch 2.2
_symmetry_space_group_name_H-M    P1
_symmetry_Int_Tables_number       1
_space_group_crystal_system       triclinic
_cell_length_a                    10.225892
_cell_length_b                    10.723023
_cell_length_c                    14.958581
_cell_angle_alpha                 91.077874
_cell_angle_beta                  81.308501
_cell_angle_gamma                 96.071461
_cell_volume                      1612.30781217

loop_
_atom_site_label
_atom_site_type_symbol
_atom_site_description
_atom_site_fract_x
_atom_site_fract_y
_atom_site_fract_z
_atom_type_partial_charge
O1    O     O_R   0.431060 0.692470 0.507460 -0.584543
O2    O     O_R   0.568940 0.307530 0.492540 -0.607650
O3    O     O_R   0.651120 0.659650 0.483670 -0.588560
O4    O     O_R   0.348880 0.340350 0.516330 -0.594667
C1    C     C_R   0.556481 0.733064 0.491954 0.921792
C2    C     C_R   0.443438 0.266862 0.502915 0.899334
O5    O     O_R   0.389960 0.516440 0.644050 -0.583030
O6    O     O_R   0.610040 0.483560 0.355950 -0.568915
O7    O     O_R   0.610030 0.483620 0.620260 -0.584741
O8    O     O_R   0.389970 0.516380 0.379740 -0.585543
C3    C     C_R   0.500242 0.500295 0.672235 0.932638
C4    C     C_R   0.499714 0.499489 0.327636 0.923250
Zn1   Zn    Zn3+2 0.353060 0.521920 0.515880 1.127523
Zn2   Zn    Zn3+2 0.646940 0.478080 0.484120 1.124901
C5    C     C_R   0.468586 0.386766 0.189468 0.284394
C6    C     C_R   0.510394 0.611641 0.812899 0.275985
C7    C     C_R   0.499215 0.500289 0.232201 -0.177467
C8    C     C_R   0.498910 0.497476 0.767638 -0.177984
C9    C     C_R   0.524532 0.614359 0.185737 -0.114198
C10   C     C_R   0.482891 0.381782 0.812090 -0.111727
C11   C     C_R   0.509239 0.616816 0.093714 0.053483
C12   C     C_R   0.473164 0.379727 0.907359 0.052607
C13   C     C_R   0.487400 0.499983 0.048121 0.033039
C14   C     C_R   0.488318 0.497007 0.953874 0.034057
C15   C     C_R   0.467062 0.385747 0.096449 -0.002994
C16   C     C_R   0.505860 0.611939 0.906254 -0.001023
C17   C     C_R   0.515393 0.730209 0.044968 -0.029135
C18   C     C_R   0.449128 0.266880 0.958626 -0.031777
C19   C     C_R   0.514526 0.726062 0.952654 -0.154116
C20   C     C_R   0.447154 0.271835 0.051301 -0.152870
H1    H     H_    0.519692 0.814024 0.917109 0.201536
H2    H     H_    0.431036 0.184231 0.088126 0.205673
H3    H     H_    0.605022 0.111463 0.427764 0.224644
H4    H     H_    0.395740 0.884800 0.448237 0.217726
C21   C     C_2   0.589089 0.866552 0.478080 -0.192873
C22   C     C_2   0.410470 0.132903 0.494600 -0.175680
C23   C     C_2   0.492745 0.931342 0.457091 -0.179947
C24   C     C_2   0.507337 0.066228 0.455182 -0.099903
N1    N     N_2   0.842700 0.448880 0.462930 -0.064749
N2    N     N_2   0.157300 0.551120 0.537070 -0.058991
C25   C     C_2   0.923361 0.495373 0.518083 0.292761
C26   C     C_2   0.067228 0.473110 0.506269 0.297243
N3    N     N_R   0.445057 0.272233 0.240555 0.186045
O9    O     O_R   0.328401 0.208269 0.250830 -0.321911
O10   O     O_R   0.541679 0.229968 0.274349 -0.370722
N4    N     N_R   0.531168 0.727109 0.762841 0.181177
O11   O     O_R   0.646319 0.793716 0.754032 -0.328052
O12   O     O_R   0.435426 0.765082 0.725576 -0.343097
C27   C     C_1   0.578035 0.724047 0.232012 0.207386
N5    N     N_1   0.621986 0.810974 0.268692 -0.160270
C28   C     C_1   0.481083 0.268610 0.756949 0.209227
N6    N     N_1   0.480306 0.179448 0.712081 -0.159610
C29   C     C_1   0.513570 0.853225 0.086342 0.224855
N7    N     N_1   0.511798 0.951992 0.118797 -0.129740
C30   C     C_1   0.421644 0.142786 0.921711 0.221642
N8    N     N_1   0.399181 0.042861 0.893409 -0.128567
C31   C     C_1   0.279375 0.075793 0.532381 0.332505
N9    N     N_1   0.174825 0.030130 0.562649 -0.024990
C32   C     C_1   0.719976 0.924827 0.489828 0.326924
N10   N     N_1   0.824454 0.971252 0.499236 -0.042636
N11   N     N_R   0.100927 0.353057 0.472140 0.201007
O13   O     O_R   0.030501 0.252151 0.506053 -0.378980
O14   O     O_R   0.176774 0.345670 0.394693 -0.278236
N12   N     N_R   0.870653 0.554728 0.600390 0.213193
O15   O     O_R   0.892485 0.513125 0.677365 -0.356597
O16   O     O_R   0.828289 0.664492 0.597712 -0.289453
N13   N     N_R   0.130354 0.675087 0.551779 0.291097
O17   O     O_R   0.177479 0.737731 0.617167 -0.277429
O18   O     O_R   0.089100 0.736524 0.488960 -0.363540
N14   N     N_R   0.897078 0.415969 0.375736 0.298754
O19   O     O_R   0.834702 0.326018 0.334234 -0.281187
O20   O     O_R   0.987885 0.492266 0.328302 -0.338296

loop_
_geom_bond_atom_site_label_1
_geom_bond_atom_site_label_2
_geom_bond_distance
_ccdc_geom_bond_type
C4    C7    1.428543 S    
C20   H2    1.082728 S    
O7    Zn2   2.015206 S    
C17   C29   1.447217 S    
C3    C8    1.425954 S    
C23   C24   1.438653 S    
C17   C19   1.382106 A    
H4    C23   1.087702 S    
O7    C3    1.292392 A    
C25   C26   1.498900 S    
C9    C27   1.452445 S    
H3    C24   1.087428 S    
O6    C4    1.291997 A    
N3    O9    1.300989 A    
N12   O15   1.301051 A    
C30   N8    1.157749 T    
C18   C20   1.383479 A    
C11   C17   1.420348 A    
C5    N3    1.437852 S    
C32   N10   1.157310 T    
C19   H1    1.083967 S    
N2    N13   1.392675 S    
C12   C18   1.424014 A    
C29   N7    1.157463 T    
O5    C3    1.291222 A    
N3    O10   1.300569 A    
C26   N11   1.432671 S    
C31   N9    1.157178 T    
N14   O19   1.299848 A    
O3    Zn2   1.943038 S    
O8    C4    1.293448 A    
O1    C1    1.297681 A    
C1    C21   1.446522 S    
C22   C24   1.340687 D    
C9    C11   1.409715 A    
N1    N14   1.392812 S    
C14   C16   1.416359 A    
C22   C31   1.449796 S    
C10   C28   1.454501 S    
C8    C10   1.401132 A    
C11   C13   1.428014 A    
C6    C16   1.390173 A    
N11   O13   1.300822 A    
O2    Zn2   1.914771 S    
C21   C32   1.450112 S    
C12   C14   1.431137 A    
C5    C15   1.393698 A    
O4    C2    1.301075 A    
O1    Zn1   1.914770 S    
O4    Zn1   1.943040 S    
C10   C12   1.413911 A    
C13   C14   1.408197 A    
N13   O17   1.299769 A    
C18   C30   1.447310 S    
N4    O12   1.301107 A    
O3    C1    1.301118 A    
O5    Zn1   2.012269 S    
C13   C15   1.414343 A    
C28   N6    1.157800 T    
N1    C25   1.308720 D    
C16   C19   1.396719 A    
C6    C8    1.390413 A    
C27   N5    1.156958 T    
C6    N4    1.438760 S    
C15   C20   1.395523 A    
C5    C7    1.392531 A    
N4    O11   1.301072 A    
Zn1   N2    2.035407 S    
O6    Zn2   2.012266 S    
C25   N12   1.433160 S    
C7    C9    1.398883 A    
Zn2   N1    2.035407 S    
N14   O20   1.302723 A    
N11   O14   1.299201 A    
O2    C2    1.298171 A    
C21   C23   1.341028 D    
C2    C22   1.447766 S    
N2    C26   1.308110 D    
N13   O18   1.302627 A    
O8    Zn1   2.015203 S    
N12   O16   1.299806 A    
