data_mof_unit_pretest_1485.cif
_audit_creation_date              2013-03-05T16:36:14-0500
_audit_creation_method            fapswitch 2.2
_symmetry_space_group_name_H-M    P1
_symmetry_Int_Tables_number       1
_space_group_crystal_system       triclinic
_cell_length_a                    27.833924
_cell_length_b                    9.080108
_cell_length_c                    7.780264
_cell_angle_alpha                 90.034921
_cell_angle_beta                  89.999852
_cell_angle_gamma                 90.000228
_cell_volume                      1966.34493676

loop_
_atom_site_label
_atom_site_type_symbol
_atom_site_description
_atom_site_fract_x
_atom_site_fract_y
_atom_site_fract_z
_atom_type_partial_charge
O1    O     O_R   0.500000 0.288390 0.642760 -0.575252
O2    O     O_R   0.500000 0.711610 0.357240 -0.575252
O3    O     O_R   0.500000 0.711610 0.642760 -0.574854
O4    O     O_R   0.500000 0.288390 0.357240 -0.574854
C1    C     C_R   0.500000 0.220022 0.499968 0.853120
C2    C     C_R   0.500000 0.779978 0.500032 0.853120
O5    O     O_R   0.430260 0.500000 0.642770 -0.585698
O6    O     O_R   0.569740 0.500000 0.357230 -0.585702
O7    O     O_R   0.569740 0.500000 0.642770 -0.585702
O8    O     O_R   0.430260 0.500000 0.357230 -0.585698
C3    C     C_R   0.407180 0.500000 0.500000 0.796677
C4    C     C_R   0.592820 0.500000 0.500000 0.796681
Cu1   Cu    Cu3+1 0.500000 0.500000 0.669080 1.007979
Cu2   Cu    Cu3+1 0.500000 0.500000 0.330920 1.007979
C5    C     C_R   0.178019 0.370861 0.527305 0.536946
C6    C     C_R   0.821977 0.629145 0.472790 0.536990
C7    C     C_R   0.178018 0.629150 0.472698 0.536946
C8    C     C_R   0.821977 0.370846 0.527208 0.536989
O9    O     O_2   0.202886 0.245187 0.553148 -0.516481
O10   O     O_2   0.797107 0.754818 0.447022 -0.516402
O11   O     O_2   0.202885 0.754825 0.446855 -0.516482
O12   O     O_2   0.797108 0.245172 0.552976 -0.516403
N1    N     N_R   0.202053 0.500006 0.500001 -0.472533
N2    N     N_R   0.797944 0.499995 0.499999 -0.472580
C9    C     C_R   0.278655 0.490881 0.655487 -0.099448
C10   C     C_R   0.721347 0.508259 0.344444 -0.099557
C11   C     C_R   0.278655 0.509131 0.344515 -0.099450
C12   C     C_R   0.721347 0.491730 0.655555 -0.099560
C13   C     C_R   0.328755 0.491191 0.655716 -0.205985
C14   C     C_R   0.671247 0.507959 0.344217 -0.205881
C15   C     C_R   0.328755 0.508815 0.344285 -0.205985
C16   C     C_R   0.671247 0.492035 0.655782 -0.205882
C17   C     C_R   0.253514 0.500007 0.500001 0.360538
C18   C     C_R   0.746485 0.499994 0.499999 0.360837
C19   C     C_R   0.101922 0.500003 0.500001 -0.043347
C20   C     C_R   0.898073 0.499998 0.499999 -0.043327
C21   C     C_R   0.127580 0.368409 0.527589 -0.020639
C22   C     C_R   0.872416 0.631598 0.472501 -0.020678
C23   C     C_R   0.127579 0.631599 0.472413 -0.020639
C24   C     C_R   0.872416 0.368396 0.527497 -0.020678
C25   C     C_R   0.102533 0.237414 0.554555 -0.145220
C26   C     C_R   0.897462 0.762597 0.445618 -0.145221
C27   C     C_R   0.102533 0.762592 0.445447 -0.145221
C28   C     C_R   0.897463 0.237398 0.554380 -0.145222
C29   C     C_R   0.354270 0.500001 0.500000 -0.037783
C30   C     C_R   0.645731 0.499999 0.500000 -0.037794
H1    H     H_    0.259312 0.516000 0.223955 0.136843
H2    H     H_    0.740691 0.485531 0.776164 0.136661
H3    H     H_    0.259312 0.484014 0.776047 0.136842
H4    H     H_    0.740692 0.514456 0.223835 0.136661
C31   C     C_R   0.974435 0.365837 0.527657 0.045040
C32   C     C_R   0.025560 0.634162 0.472309 0.045047
C33   C     C_R   0.974435 0.634162 0.472343 0.045040
C34   C     C_R   0.025561 0.365841 0.527692 0.045047
C35   C     C_R   0.949213 0.499999 0.500000 0.067305
C36   C     C_R   0.050782 0.500002 0.500001 0.067286
C37   C     C_R   0.947321 0.235757 0.554480 -0.208184
C38   C     C_R   0.052674 0.764236 0.445374 -0.208200
C39   C     C_R   0.947321 0.764241 0.445520 -0.208184
C40   C     C_R   0.052675 0.235768 0.554627 -0.208200
H5    H     H_    0.963251 0.129567 0.576378 0.132409
H6    H     H_    0.036745 0.870422 0.423376 0.132435
H7    H     H_    0.963250 0.870433 0.423622 0.132409
H8    H     H_    0.036746 0.129581 0.576624 0.132435
C41   C     C_1   0.500000 0.065394 0.499956 -0.166721
C42   C     C_1   0.500000 0.934606 0.500044 -0.166721
N3    N     N_1   0.500000 0.500000 0.076820 -0.049779
N4    N     N_1   0.500000 0.500000 0.923180 -0.049779
H9    H     H_    0.347452 0.515773 0.222424 0.160683
H10   H     H_    0.652551 0.485767 0.777699 0.160659
H11   H     H_    0.347452 0.484232 0.777577 0.160683
H12   H     H_    0.652551 0.514228 0.222300 0.160658
H13   H     H_    0.121425 0.134693 0.575943 0.187071
H14   H     H_    0.878570 0.865322 0.424314 0.187047
H15   H     H_    0.121424 0.865314 0.424059 0.187070
H16   H     H_    0.878571 0.134672 0.575684 0.187046

loop_
_geom_bond_atom_site_label_1
_geom_bond_atom_site_label_2
_geom_bond_distance
_ccdc_geom_bond_type
C38   H6    1.075044 S    
O3    C2    1.272538 A    
C33   C39   1.417217 A    
C34   C40   1.417296 A    
C11   C17   1.400029 A    
O5    C3    1.283174 A    
C7    N1    1.366771 A    
O1    C1    1.272308 A    
C19   C21   1.408598 A    
C22   C26   1.394602 A    
C10   H4    1.083366 S    
C9    C13   1.394484 A    
C7    C23   1.404093 A    
C28   H16   1.083598 S    
O7    Cu1   1.951898 S    
C5    C21   1.404093 A    
C20   C24   1.408538 A    
C8    C24   1.404093 A    
C27   C38   1.387844 A    
C5    O9    1.349805 S    
C10   C18   1.400018 A    
N1    C17   1.432373 S    
N2    C18   1.432309 S    
Cu2   N3    1.976964 S    
C31   C37   1.417213 A    
C24   C28   1.394602 A    
O3    Cu1   1.932447 S    
C6    O10   1.349739 S    
C5    N1    1.366771 A    
C12   C18   1.400017 A    
C6    N2    1.366670 A    
Cu1   Cu2   2.630975 S    
O4    Cu2   1.932448 S    
O2    C2    1.272308 A    
C33   C35   1.422489 A    
C27   H15   1.083663 S    
C34   C36   1.422516 A    
C26   H14   1.083599 S    
C11   C15   1.394484 A    
N3    N4    1.195361 T    
C12   C16   1.394483 A    
C4    C30   1.472707 S    
O8    Cu2   1.951901 S    
C16   H10   1.083437 S    
C7    O11   1.349804 S    
C13   C29   1.406642 A    
C19   C23   1.408597 A    
C15   H9    1.083421 S    
C2    C42   1.404032 S    
C28   C37   1.387844 A    
O6    C4    1.283180 A    
C32   C38   1.417296 A    
C1    C41   1.404032 S    
C10   C14   1.394483 A    
C8    N2    1.366670 A    
C3    C29   1.472685 S    
O1    Cu1   1.932200 S    
C32   C33   1.423021 A    
C11   H1    1.083347 S    
C12   H2    1.083366 S    
O6    Cu2   1.951899 S    
C19   C36   1.423441 A    
C8    O12   1.349738 S    
C16   C30   1.406682 A    
C14   C30   1.406681 A    
C25   C40   1.387847 A    
O4    C1    1.272538 A    
C26   C39   1.387846 A    
C14   H12   1.083440 S    
C37   H5    1.074962 S    
C39   H7    1.074962 S    
C40   H8    1.075044 S    
C31   C34   1.423023 A    
C20   C22   1.408540 A    
C20   C35   1.423441 A    
C31   C35   1.422491 A    
C21   C25   1.394665 A    
O2    Cu2   1.932199 S    
O7    C4    1.283179 A    
C9    H3    1.083347 S    
O8    C3    1.283173 A    
C25   H13   1.083663 S    
O5    Cu1   1.951902 S    
C23   C27   1.394666 A    
C41   C42   1.187576 T    
C15   C29   1.406644 A    
C9    C17   1.400031 A    
C32   C36   1.422518 A    
C6    C22   1.404091 A    
C13   H11   1.083422 S    
Cu1   N4    1.976964 S    
