data_mof_unit_pretest_1890.cif
_audit_creation_date              2012-10-26T20:25:01-0400
_audit_creation_method            fapswitch 2.2
_symmetry_space_group_name_H-M    P1
_symmetry_Int_Tables_number       1
_space_group_crystal_system       triclinic
_cell_length_a                    19.365698
_cell_length_b                    14.654183
_cell_length_c                    15.911742
_cell_angle_alpha                 89.994824
_cell_angle_beta                  89.908376
_cell_angle_gamma                 89.992833
_cell_volume                      4515.56328736

loop_
_atom_site_label
_atom_site_type_symbol
_atom_type_description
_atom_site_fract_x
_atom_site_fract_y
_atom_site_fract_z
_atom_type_partial_charge
Br1   Br    Br    0.642348 0.565750 0.910421 -0.463369
Br2   Br    Br    0.606109 0.358576 0.915569 -0.466732
C1    C     C_R   0.500346 0.500008 0.339779 0.585812
C2    C     C_3   0.451346 0.420799 0.047464 -0.095521
C3    C     C_3   0.447416 0.428092 0.950056 -0.209357
C4    C     C_3   0.475433 0.594244 0.949992 -0.254080
C5    C     C_1   0.499857 0.499984 0.749533 0.057827
C6    C     C_3   0.497497 0.499891 0.082776 -0.048287
C7    C     C_3   0.499888 0.499935 0.917006 0.032102
C8    C     C_R   0.632955 0.499994 0.499907 0.536983
C9    C     C_3   0.573751 0.478711 0.952418 0.308902
C10   C     C_3   0.572074 0.482226 0.050343 -0.190761
C11   C     C_1   0.499708 0.499976 0.824904 0.021677
C12   C     C_R   0.929879 0.500034 0.499673 0.347644
C13   C     C_1   0.498803 0.499917 0.175029 -0.052854
C14   C     C_1   0.499677 0.499986 0.250373 0.030901
C15   C     C_3   0.473819 0.053331 0.587830 -0.214759
C16   C     C_3   0.473816 0.946657 0.587831 -0.214835
C17   C     C_3   0.571536 0.053304 0.484314 -0.216555
C18   C     C_3   0.571535 0.946673 0.484318 -0.216977
C19   C     C_3   0.498176 0.091855 0.501782 0.021426
C20   C     C_3   0.498175 0.908145 0.501785 0.020734
C21   C     C_3   0.449157 0.946689 0.433217 -0.213133
C22   C     C_3   0.449158 0.053345 0.433215 -0.214594
C23   C     C_R   0.182136 0.551510 0.558916 -0.140964
C24   C     C_1   0.498299 0.804958 0.501674 0.120649
C25   C     C_1   0.498301 0.195042 0.501669 0.119159
C26   C     C_R   0.500187 0.499990 0.660100 0.591392
C27   C     C_R   0.367338 0.500009 0.499831 0.642524
C28   C     C_R   0.745305 0.580131 0.518668 -0.117109
C29   C     C_R   0.745361 0.419830 0.481119 -0.121368
C30   C     C_R   0.817262 0.579999 0.519129 -0.106301
C31   C     C_R   0.817321 0.419983 0.480521 -0.108009
C32   C     C_R   0.853899 0.500002 0.499774 0.037181
C33   C     C_R   0.708803 0.499981 0.499908 0.020549
C34   C     C_R   0.182366 0.448736 0.440187 -0.140991
C35   C     C_R   0.069869 0.500105 0.499523 0.354672
C36   C     C_2   0.287487 0.600339 0.631934 0.225344
C37   C     C_2   0.288027 0.400079 0.367260 0.230896
C38   C     C_2   0.405834 0.627260 0.080718 0.222569
C39   C     C_2   0.380287 0.414116 0.086716 0.214637
C40   C     C_R   0.254298 0.550378 0.561436 -0.020197
C41   C     C_R   0.254547 0.449844 0.437815 -0.021897
C42   C     C_R   0.291408 0.500053 0.499705 0.039802
C43   C     C_R   0.145895 0.500112 0.499534 0.017433
C44   C     C_3   0.474937 0.595341 0.047744 -0.091898
Cu1   Cu    Cu3+1 0.500090 0.589920 0.499910 1.051218
Cu2   Cu    Cu3+1 0.500090 0.410080 0.499910 1.045232
H1    H     H_    0.718278 0.642795 0.533605 0.137951
H2    H     H_    0.395713 0.921465 0.444262 0.130107
H3    H     H_    0.465519 0.078574 0.370300 0.132575
H4    H     H_    0.465516 0.921464 0.370302 0.137680
H5    H     H_    0.420895 0.078575 0.602116 0.127598
H6    H     H_    0.420891 0.921428 0.602116 0.127961
H7    H     H_    0.844151 0.642764 0.533875 0.143720
H8    H     H_    0.844257 0.357229 0.465726 0.143102
H9    H     H_    0.153921 0.590168 0.605842 0.131876
H10   H     H_    0.154328 0.410128 0.393187 0.133253
H11   H     H_    0.423238 0.609544 0.924170 0.123558
H12   H     H_    0.718376 0.357160 0.466228 0.134685
H13   H     H_    0.394487 0.447949 0.929644 0.153890
H14   H     H_    0.477306 0.355041 0.062882 0.162360
H15   H     H_    0.514097 0.646354 0.068512 0.173616
H16   H     H_    0.457562 0.359983 0.921766 0.173517
H17   H     H_    0.509752 0.649432 0.926365 0.169963
H18   H     H_    0.606979 0.536727 0.074066 0.155392
H19   H     H_    0.592115 0.417380 0.077325 0.155532
H20   H     H_    0.259479 0.654686 0.663440 0.110351
H21   H     H_    0.260149 0.345849 0.335537 0.118259
H22   H     H_    0.358411 0.596507 0.058173 0.119877
H23   H     H_    0.508317 0.921413 0.638629 0.131582
H24   H     H_    0.365593 0.457268 0.139140 0.151746
H25   H     H_    0.508322 0.078551 0.638627 0.135044
H26   H     H_    0.590484 0.078528 0.422477 0.124483
H27   H     H_    0.590485 0.921451 0.422483 0.126433
H28   H     H_    0.608102 0.078523 0.532927 0.128112
H29   H     H_    0.608100 0.921436 0.532935 0.125513
H30   H     H_    0.395715 0.078592 0.444254 0.128134
N1    N     N_R   0.965582 0.432381 0.460820 -0.221477
N2    N     N_R   0.965482 0.567728 0.538435 -0.218620
N3    N     N_R   0.034260 0.432546 0.460554 -0.219216
N4    N     N_R   0.034155 0.567630 0.538557 -0.219212
N5    N     N_1   0.498600 0.724970 0.501390 -0.189024
N6    N     N_1   0.498600 0.275030 0.501390 -0.190202
O1    O     O_R   0.500080 0.575970 0.379360 -0.490285
O2    O     O_2   0.344957 0.421366 0.340837 -0.501003
O3    O     O_2   0.402596 0.689196 0.131881 -0.480443
O4    O     O_2   0.339333 0.356764 0.062039 -0.480461
O5    O     O_R   0.500080 0.424030 0.379360 -0.474453
O6    O     O_R   0.599930 0.575960 0.499920 -0.510499
O7    O     O_R   0.599930 0.424040 0.499920 -0.507020
O8    O     O_R   0.500070 0.575900 0.620490 -0.469032
O9    O     O_R   0.500070 0.424100 0.620490 -0.492667
O10   O     O_R   0.400220 0.575910 0.499940 -0.464161
O11   O     O_R   0.400220 0.424090 0.499940 -0.468931
O12   O     O_2   0.344310 0.579116 0.658538 -0.507877

loop_
_geom_bond_atom_site_label_1
_geom_bond_atom_site_label_2
_ccdc_geom_bond_type
C24   N5    T    
Cu2   O11   S    
C23   C43   A    
C1    O1    A    
Cu1   O8    S    
C17   C18   S    
Br1   C9    S    
C2    C6    S    
C4    C7    S    
C38   C44   S    
C38   H22   S    
C28   C33   A    
Cu1   O1    S    
C38   O3    D    
C17   H28   S    
C17   C19   S    
C36   C40   S    
C34   H10   S    
C27   O10   A    
C2    C39   S    
C13   C14   T    
C2    H14   S    
C7    C11   S    
C4    H17   S    
Cu2   O7    S    
C21   C22   S    
C29   C31   A    
C8    C33   S    
Cu1   N5    S    
C30   H7    S    
C22   H3    S    
C19   C25   S    
C15   H25   S    
C35   N3    A    
C40   C42   A    
Br2   C9    S    
C31   C32   A    
C10   H19   S    
Cu2   O9    S    
C23   H9    S    
N2    N4    A    
C27   O11   A    
C21   H2    S    
C37   C41   S    
C10   H18   S    
C15   C19   S    
C5    C26   S    
Cu2   N6    S    
C18   H27   S    
C26   O9    A    
C30   C32   A    
C29   H12   S    
C41   C42   A    
C3    C7    S    
Cu1   Cu2   S    
C6    C10   S    
C15   C16   S    
C37   H21   S    
C3    H13   S    
C34   C43   A    
C26   O8    A    
C12   N1    A    
C7    C9    S    
C8    O6    A    
C39   H24   S    
C18   H29   S    
C22   H30   S    
C28   H1    S    
C18   C20   S    
C8    O7    A    
C6    C13   S    
C12   N2    A    
Cu2   O5    S    
C27   C42   S    
Cu1   O6    S    
C29   C33   A    
C35   N4    A    
C35   C43   S    
C15   H5    S    
N1    N3    A    
C16   H23   S    
C39   O4    D    
C25   N6    T    
C4    C44   S    
C16   C20   S    
C4    H11   S    
C17   H26   S    
C36   H20   S    
C2    C3    S    
C23   C40   A    
C12   C32   S    
C9    C10   S    
C44   H15   S    
C1    O5    A    
C28   C30   A    
C21   H4    S    
C31   H8    S    
Cu1   O10   S    
C6    C44   S    
C16   H6    S    
C5    C11   T    
C3    H16   S    
C20   C24   S    
C19   C22   S    
C36   O12   D    
C20   C21   S    
C34   C41   A    
C37   O2    D    
C1    C14   S    
