data_mof_unit_pretest_1160.cif
_audit_creation_date              2013-03-05T16:41:01-0500
_audit_creation_method            fapswitch 2.2
_symmetry_space_group_name_H-M    P1
_symmetry_Int_Tables_number       1
_space_group_crystal_system       triclinic
_cell_length_a                    18.787947
_cell_length_b                    18.587237
_cell_length_c                    18.837501
_cell_angle_alpha                 109.266041
_cell_angle_beta                  109.782986
_cell_angle_gamma                 109.215181
_cell_volume                      5073.22598606

loop_
_atom_site_label
_atom_site_type_symbol
_atom_site_description
_atom_site_fract_x
_atom_site_fract_y
_atom_site_fract_z
_atom_type_partial_charge
O1    O     O_R   0.408360 0.551710 0.460090 -0.600671
O2    O     O_R   0.408400 0.448280 0.356670 -0.644072
C1    C     C_R   0.381821 0.502220 0.380351 0.849959
O3    O     O_R   0.591600 0.643340 0.551710 -0.613480
O4    O     O_R   0.591630 0.539900 0.448290 -0.629327
C2    C     C_R   0.619286 0.620369 0.499687 0.909183
Zn1   Zn    Zn3+2 0.499980 0.569060 0.569060 0.981403
Zn2   Zn    Zn3+2 0.500020 0.430940 0.430940 0.933818
O5    O     O_R   0.591600 0.551720 0.643330 -0.608063
O6    O     O_R   0.591640 0.448290 0.539910 -0.621857
O7    O     O_R   0.408370 0.460100 0.551710 -0.611746
O8    O     O_R   0.408400 0.356660 0.448290 -0.615483
C3    C     C_R   0.618522 0.498128 0.619847 0.893859
C4    C     C_R   0.379317 0.379404 0.499162 0.928861
H1    H     H_    0.783302 0.754158 0.871588 0.123391
C5    C     C_R   0.744607 0.801609 0.783339 -0.152934
H2    H     H_    0.719504 0.835790 0.817388 0.115075
C6    C     C_R   0.739969 0.802261 0.707969 -0.121501
H3    H     H_    0.710417 0.836480 0.683787 0.117595
C7    C     C_R   0.772102 0.757553 0.663188 0.153337
C8    C     C_R   0.807806 0.711559 0.693925 -0.149387
H4    H     H_    0.830910 0.675130 0.658974 0.124725
C9    C     C_R   0.811511 0.710605 0.768846 -0.148862
H5    H     H_    0.836399 0.672942 0.790650 0.132651
C10   C     C_R   0.780411 0.755684 0.813800 -0.095030
C11   C     C_R   0.828944 0.814191 0.579197 0.443985
C12   C     C_R   0.814049 0.811424 0.499392 -0.188135
C13   C     C_R   0.736263 0.745505 0.420688 0.016775
C14   C     C_R   0.673492 0.682633 0.422460 -0.268081
H6    H     H_    0.615117 0.629114 0.362035 0.146092
C15   C     C_R   0.685803 0.687533 0.501411 -0.147149
C16   C     C_R   0.762037 0.753910 0.580588 -0.131522
C17   C     C_R   0.676696 0.756483 0.284587 0.532512
C18   C     C_R   0.676758 0.747570 0.207278 -0.244397
H7    H     H_    0.642763 0.770951 0.169959 0.140712
C19   C     C_R   0.721081 0.708993 0.178095 -0.152199
H8    H     H_    0.719703 0.701035 0.118041 0.159613
C20   C     C_R   0.767480 0.680858 0.226521 -0.132768
H9    H     H_    0.801823 0.650967 0.203943 0.153656
C21   C     C_R   0.770546 0.692372 0.304721 -0.256677
H10   H     H_    0.807119 0.671409 0.342575 0.155712
C22   C     C_R   0.726788 0.731228 0.335046 0.061157
H11   H     H_    0.580493 0.903562 0.582807 0.121345
C23   C     C_R   0.442085 0.814219 0.508481 -0.146590
H12   H     H_    0.427158 0.860183 0.544417 0.121122
C24   C     C_R   0.374866 0.730550 0.440226 -0.129891
H13   H     H_    0.308170 0.712500 0.424155 0.133383
C25   C     C_R   0.393700 0.670348 0.393341 0.123179
C26   C     C_R   0.480697 0.695646 0.415347 -0.111534
H14   H     H_    0.496167 0.650773 0.378862 0.087121
C27   C     C_R   0.547785 0.779490 0.483716 -0.125510
H15   H     H_    0.614674 0.799354 0.499969 0.144965
C28   C     C_R   0.528497 0.838640 0.530242 -0.152575
C29   C     C_R   0.256074 0.577310 0.252892 -0.247586
H16   H     H_    0.259547 0.637450 0.254895 0.152159
C30   C     C_R   0.184761 0.496082 0.184644 -0.063334
C31   C     C_R   0.175488 0.416978 0.184172 0.019194
C32   C     C_R   0.244242 0.422104 0.248106 -0.220647
H17   H     H_    0.240228 0.362441 0.247975 0.136321
C33   C     C_R   0.316284 0.503230 0.314840 -0.041527
C34   C     C_R   0.321679 0.582278 0.319899 0.016239
C35   C     C_R   0.058764 0.279543 0.157525 -0.175389
H18   H     H_    0.090869 0.302702 0.226599 0.134788
C36   C     C_R   0.979635 0.200633 0.102792 -0.135248
H19   H     H_    0.952473 0.163086 0.129497 0.130643
C37   C     C_R   0.934442 0.171545 0.014082 -0.133826
H20   H     H_    0.872022 0.111682 0.971928 0.123334
C38   C     C_R   0.969424 0.220505 0.980063 -0.129946
H21   H     H_    0.933224 0.200528 0.912381 0.153521
C39   C     C_R   0.050172 0.297263 0.033896 -0.080653
H22   H     H_    0.075781 0.333829 0.006081 0.116229
C40   C     C_R   0.094332 0.329761 0.123806 0.095983
H23   H     H_    0.216457 0.610181 0.545393 0.138042
C41   C     C_R   0.253275 0.540438 0.608507 -0.239025
H24   H     H_    0.271523 0.589159 0.672000 0.147593
C42   C     C_R   0.259952 0.465360 0.598017 -0.126686
H25   H     H_    0.283180 0.456374 0.653711 0.129005
C43   C     C_R   0.237461 0.402571 0.516057 0.102594
C44   C     C_R   0.207111 0.414901 0.444479 -0.242103
H26   H     H_    0.189279 0.366489 0.381015 0.119707
C45   C     C_R   0.197088 0.488424 0.454219 0.550049
C46   C     C_R   0.222219 0.552238 0.536959 -0.218434
C47   C     C_R   0.180256 0.256932 0.502724 -0.261938
H27   H     H_    0.127040 0.264498 0.507935 0.158709
C48   C     C_R   0.185928 0.182636 0.496811 -0.136626
C49   C     C_R   0.255319 0.171988 0.492392 -0.127569
C50   C     C_R   0.316369 0.234999 0.487647 0.395887
C51   C     C_R   0.312134 0.311710 0.497121 -0.199295
C52   C     C_R   0.244146 0.323041 0.505260 -0.040716
C53   C     C_R   0.334879 0.109263 0.564453 -0.080855
H28   H     H_    0.379056 0.173927 0.621356 0.127019
C54   C     C_R   0.347995 0.039015 0.562711 -0.179347
H29   H     H_    0.401592 0.049356 0.618206 0.129440
C55   C     C_R   0.292705 0.955719 0.488877 -0.142614
H30   H     H_    0.303394 0.901553 0.487208 0.120435
C56   C     C_R   0.223695 0.942353 0.417055 -0.130627
H31   H     H_    0.181666 0.877995 0.359707 0.146966
C57   C     C_R   0.209444 0.012105 0.419100 -0.166143
H32   H     H_    0.156311 0.001446 0.362982 0.097342
C58   C     C_R   0.265521 0.096187 0.492531 0.180011
H33   H     H_    0.422691 0.521941 0.814300 0.139134
C59   C     C_R   0.560104 0.588061 0.858535 0.546632
C60   C     C_R   0.627162 0.579830 0.845350 -0.267050
H34   H     H_    0.694119 0.632016 0.889471 0.124452
C61   C     C_R   0.607818 0.504684 0.774588 0.074006
C62   C     C_R   0.521448 0.435749 0.718789 -0.132679
H35   H     H_    0.505632 0.377076 0.664280 0.150762
C63   C     C_R   0.455228 0.442120 0.733682 -0.210848
H36   H     H_    0.388820 0.388380 0.691163 0.156101
C64   C     C_R   0.474524 0.517729 0.803368 -0.182925
C65   C     C_R   0.744294 0.499160 0.821536 -0.256435
H37   H     H_    0.741768 0.501546 0.878944 0.154377
C66   C     C_R   0.814124 0.497977 0.811263 -0.090305
C67   C     C_R   0.819991 0.497364 0.738510 -0.020355
C68   C     C_R   0.752618 0.493854 0.674687 -0.259869
H38   H     H_    0.756066 0.493209 0.618136 0.156558
C69   C     C_R   0.682954 0.495475 0.685183 -0.068816
C70   C     C_R   0.678640 0.499202 0.759418 0.031132
C71   C     C_R   0.952541 0.576623 0.733146 -0.150740
H39   H     H_    0.942667 0.632772 0.746475 0.112043
C72   C     C_R   0.023330 0.580115 0.722112 -0.142865
H40   H     H_    0.067578 0.638553 0.726791 0.119598
C73   C     C_R   0.036920 0.508152 0.704911 -0.126072
H41   H     H_    0.091677 0.510869 0.696276 0.120871
C74   C     C_R   0.979530 0.432495 0.698382 -0.127622
H42   H     H_    0.989901 0.376714 0.684416 0.134512
C75   C     C_R   0.908708 0.428844 0.709511 -0.118762
H43   H     H_    0.863889 0.369841 0.703383 0.107725
C76   C     C_R   0.895177 0.501087 0.727510 0.136367
O9    O     O_R   0.051730 0.908360 0.460060 -0.627262
O10   O     O_R   0.948280 0.908380 0.356650 -0.619101
C77   C     C_R   0.997973 0.877224 0.380385 0.881822
O11   O     O_R   0.960110 0.908350 0.551690 -0.567373
O12   O     O_R   0.856660 0.908370 0.448270 -0.607589
C78   C     C_R   0.879978 0.878413 0.499051 0.906547
Zn3   Zn    Zn3+2 0.069070 0.999960 0.569030 0.971567
Zn4   Zn    Zn3+2 0.930930 0.999990 0.430930 0.974077
O13   O     O_R   0.051720 0.091580 0.643310 -0.627556
O14   O     O_R   0.948270 0.091600 0.539890 -0.617219
O15   O     O_R   0.143340 0.091590 0.551680 -0.619374
O16   O     O_R   0.039890 0.091610 0.448270 -0.631670
C79   C     C_R   0.999444 0.120288 0.619858 0.851444
C80   C     C_R   0.119958 0.118629 0.498625 0.901966
O17   O     O_R   0.051730 0.460050 0.908360 -0.617613
O18   O     O_R   0.948290 0.356630 0.908390 -0.632002
C81   C     C_R   0.002490 0.379786 0.882723 0.866863
O19   O     O_R   0.143340 0.551690 0.091580 -0.612748
O20   O     O_R   0.039900 0.448270 0.091610 -0.627881
C82   C     C_R   0.119747 0.498079 0.118871 0.853385
Zn5   Zn    Zn3+2 0.069070 0.569030 0.999960 0.964221
Zn6   Zn    Zn3+2 0.930930 0.430930 0.000000 0.936767
O21   O     O_R   0.051710 0.643320 0.091560 -0.609487
O22   O     O_R   0.948270 0.539900 0.091590 -0.631287
O23   O     O_R   0.960100 0.551680 0.908340 -0.613905
O24   O     O_R   0.856660 0.448270 0.908370 -0.621260
C83   C     C_R   0.998893 0.620591 0.118602 0.865705
C84   C     C_R   0.880101 0.498652 0.878319 0.867557
H44   H     H_    0.042257 0.680207 0.589878 0.118561
C85   C     C_R   0.101178 0.764129 0.546575 -0.149763
H45   H     H_    0.161527 0.806815 0.608178 0.117278
C86   C     C_R   0.090866 0.779939 0.477115 -0.091469
H46   H     H_    0.144427 0.833949 0.485413 0.140311
C87   C     C_R   0.012247 0.725719 0.397258 0.127916
C88   C     C_R   0.946878 0.651802 0.386422 -0.206767
H47   H     H_    0.888291 0.605733 0.323723 0.127620
C89   C     C_R   0.957234 0.636090 0.455927 -0.139765
H48   H     H_    0.906060 0.579513 0.447232 0.132318
C90   C     C_R   0.034114 0.692616 0.536193 -0.096988
C91   C     C_R   0.997909 0.675297 0.252942 -0.268313
H49   H     H_    0.997756 0.617864 0.255274 0.167082
C92   C     C_R   0.998685 0.687452 0.184019 -0.077342
C93   C     C_R   0.003350 0.763940 0.181688 -0.007650
C94   C     C_R   0.999483 0.823236 0.245986 -0.265852
H50   H     H_    0.000082 0.881057 0.243826 0.152540
C95   C     C_R   0.999633 0.811408 0.315486 -0.068985
C96   C     C_R   0.002985 0.738724 0.321649 -0.016126
C97   C     C_R   0.089812 0.867042 0.146821 -0.160652
H51   H     H_    0.132712 0.913451 0.215654 0.116864
C98   C     C_R   0.108479 0.886744 0.087579 -0.144589
H52   H     H_    0.164377 0.948279 0.110705 0.128500
C99   C     C_R   0.056478 0.825960 0.998783 -0.125552
H53   H     H_    0.072215 0.840041 0.952971 0.124262
C100  C     C_R   0.984803 0.746387 0.969233 -0.103580
H54   H     H_    0.947140 0.697951 0.901261 0.124501
C101  C     C_R   0.963659 0.727870 0.027803 -0.101647
H55   H     H_    0.907329 0.666208 0.003649 0.092416
C102  C     C_R   0.017864 0.786764 0.117472 0.127747
H56   H     H_    0.385573 0.536191 0.129521 0.112833
C103  C     C_R   0.291678 0.519025 0.011916 -0.128071
H57   H     H_    0.327586 0.586396 0.028021 0.119687
C104  C     C_R   0.212503 0.460410 0.933911 -0.092194
H58   H     H_    0.188144 0.483070 0.889949 0.133466
C105  C     C_R   0.165091 0.373057 0.912949 0.084617
C106  C     C_R   0.200464 0.344063 0.968740 -0.203032
H59   H     H_    0.165896 0.276328 0.952500 0.135732
C107  C     C_R   0.279268 0.403037 0.047065 -0.127485
H60   H     H_    0.305126 0.380864 0.090864 0.136759
C108  C     C_R   0.324597 0.490612 0.068899 -0.102825
C109  C     C_R   0.076440 0.245090 0.765116 -0.242982
H61   H     H_    0.135108 0.241193 0.775028 0.165128
C110  C     C_R   0.998631 0.186795 0.685597 -0.078224
C111  C     C_R   0.922315 0.192466 0.671713 -0.000863
C112  C     C_R   0.924774 0.253385 0.740227 -0.277222
H62   H     H_    0.866151 0.256905 0.731512 0.146880
C113  C     C_R   0.003239 0.313455 0.817978 -0.072014
C114  C     C_R   0.080478 0.310796 0.831033 -0.012451
C115  C     C_R   0.834542 0.168185 0.524379 -0.104660
H63   H     H_    0.889171 0.225433 0.538057 0.113212
C116  C     C_R   0.757490 0.121574 0.444372 -0.152459
H64   H     H_    0.752864 0.142734 0.396702 0.122595
C117  C     C_R   0.686272 0.047989 0.426082 -0.086989
H65   H     H_    0.626539 0.012476 0.364367 0.113160
C118  C     C_R   0.691952 0.020993 0.487846 -0.093060
H66   H     H_    0.636552 0.964529 0.474049 0.127736
C119  C     C_R   0.768884 0.067495 0.567960 -0.182186
H67   H     H_    0.771423 0.046552 0.615330 0.126864
C120  C     C_R   0.841120 0.140787 0.586345 0.143831
O25   O     O_3   0.163171 0.497652 0.382477 -0.651056
C121  C     C_3   0.075049 0.473388 0.356209 0.021202
H68   H     H_    0.070357 0.521984 0.405585 0.151188
H69   H     H_    0.038384 0.406678 0.346435 0.135204
C122  C     C_3   0.032850 0.471341 0.270241 -0.264755
H70   H     H_    0.067625 0.537472 0.278805 0.213017
H71   H     H_    0.038592 0.424470 0.221210 0.249254
C123  C     C_3   0.936478 0.442207 0.236863 -0.980145
H72   H     H_    0.900588 0.374170 0.223692 0.259241
H73   H     H_    0.908374 0.443617 0.175485 0.281894
H74   H     H_    0.928053 0.486672 0.285390 0.261148
O26   O     O_3   0.385286 0.225970 0.482654 -0.647238
C124  C     C_3   0.356709 0.164441 0.396431 0.119723
H75   H     H_    0.368926 0.199836 0.360778 0.162735
H76   H     H_    0.285863 0.114908 0.358374 0.111934
C125  C     C_3   0.408676 0.116104 0.399437 -0.320028
H77   H     H_    0.478904 0.163962 0.430504 0.225038
H78   H     H_    0.401158 0.084467 0.439181 0.242624
C126  C     C_3   0.377719 0.045667 0.308539 -0.993941
H79   H     H_    0.308291 0.995607 0.277496 0.267604
H80   H     H_    0.417385 0.012603 0.313077 0.269548
H81   H     H_    0.385046 0.075631 0.267456 0.259461
O27   O     O_3   0.576983 0.660445 0.928867 -0.665219
C127  C     C_3   0.624592 0.740106 0.932644 0.053796
H82   H     H_    0.586022 0.774398 0.931696 0.160753
H83   H     H_    0.635584 0.731922 0.876484 0.121865
C128  C     C_3   0.711824 0.798369 0.018020 -0.336693
H84   H     H_    0.699612 0.809639 0.073388 0.227639
H85   H     H_    0.751250 0.764995 0.020869 0.209543
C129  C     C_3   0.763546 0.887091 0.027527 -0.981167
H86   H     H_    0.779253 0.878272 0.974625 0.259412
H87   H     H_    0.825534 0.927861 0.090728 0.268984
H88   H     H_    0.725749 0.922175 0.025700 0.260537
O28   O     O_3   0.913131 0.866343 0.650451 -0.630513
C130  C     C_3   0.923040 0.935666 0.721110 0.108794
H89   H     H_    0.993963 0.983629 0.762690 0.172832
H90   H     H_    0.904985 0.912690 0.762909 0.149374
C131  C     C_3   0.876627 0.985106 0.695976 -0.410797
H91   H     H_    0.895973 0.007511 0.654400 0.226502
H92   H     H_    0.804856 0.941611 0.659327 0.193561
C132  C     C_3   0.900416 0.063884 0.777138 -0.965933
H93   H     H_    0.883540 0.042240 0.820414 0.258894
H94   H     H_    0.863631 0.096926 0.759234 0.264874
H95   H     H_    0.971236 0.111708 0.812587 0.275301
O29   O     O_3   0.635500 0.797608 0.315212 -0.645198
C133  C     C_3   0.544257 0.743808 0.259588 0.044772
H96   H     H_    0.520902 0.685891 0.268533 0.129300
H97   H     H_    0.524425 0.720185 0.189759 0.133719
C134  C     C_3   0.499970 0.796452 0.282275 -0.314369
H98   H     H_    0.515288 0.818137 0.350490 0.233458
H99   H     H_    0.525106 0.855693 0.275921 0.214664
C135  C     C_3   0.401406 0.742172 0.222308 -0.957891
H100  H     H_    0.384487 0.729942 0.155429 0.255877
H101  H     H_    0.370240 0.778276 0.246168 0.265891
H102  H     H_    0.375731 0.678337 0.220595 0.270781

loop_
_geom_bond_atom_site_label_1
_geom_bond_atom_site_label_2
_geom_bond_distance
_ccdc_geom_bond_type
C103  C108  1.397620 A    
C133  C134  1.527454 S    
C106  C107  1.398674 A    
C112  H62   1.084634 S    
C131  H92   1.110155 S    
C11   C16   1.396733 A    
O24   C84   1.280028 A    
C91   H49   1.081926 S    
C54   C55   1.397468 A    
C132  H94   1.107654 S    
C65   H37   1.085437 S    
O15   C80   1.274364 A    
Zn3   O15   2.016518 S    
C67   C76   1.478638 S    
C48   C80   1.427479 S    
C26   C27   1.399920 A    
C104  C105  1.404436 A    
C67   C68   1.384081 A    
C25   C34   1.484888 S    
H44   C90   1.082467 S    
C73   H41   1.082530 S    
C65   C66   1.395437 A    
C113  C114  1.407988 A    
C128  H84   1.110760 S    
C117  H65   1.081447 S    
Zn1   O7    2.014661 S    
C112  C113  1.393153 A    
C11   C12   1.412684 A    
C14   H6    1.085195 S    
C41   C42   1.397228 A    
C65   C70   1.383823 A    
O4    C2    1.279359 A    
C17   C22   1.410421 A    
C111  C120  1.480322 S    
C13   C14   1.379429 A    
O19   C82   1.286584 A    
C42   C43   1.403214 A    
C127  H82   1.111090 S    
O1    C1    1.276851 A    
C100  C101  1.396725 A    
C20   H9    1.082443 S    
Zn2   O6    2.021540 S    
O7    C4    1.281826 A    
C134  H98   1.108175 S    
C101  C102  1.403638 A    
C62   H35   1.083125 S    
C93   C102  1.484389 S    
C32   C33   1.392824 A    
C68   H38   1.085345 S    
C126  H80   1.110572 S    
C99   H53   1.082365 S    
C123  H74   1.108708 S    
C85   C90   1.397105 A    
C124  C125  1.528801 S    
C133  H97   1.114143 S    
C18   H7    1.082306 S    
C110  C111  1.413929 A    
C103  C104  1.398612 A    
O5    C3    1.279121 A    
O27   C127  1.418847 S    
C35   C36   1.397742 A    
C123  H73   1.110027 S    
C38   H21   1.077187 S    
C23   C28   1.396956 A    
H11   C28   1.082465 S    
C101  H55   1.082668 S    
C87   C88   1.404345 A    
C63   C64   1.398122 A    
C5    H2    1.081927 S    
C97   C98   1.397357 A    
C56   C57   1.398779 A    
O11   Zn3   2.020578 S    
O17   Zn5   2.016253 S    
C9    H5    1.073612 S    
O20   Zn6   2.020021 S    
C39   H22   1.076288 S    
Zn6   O24   2.015711 S    
C49   C58   1.483799 S    
C125  H77   1.111706 S    
C18   C19   1.397359 A    
C119  C120  1.403982 A    
C105  C106  1.404746 A    
C55   C56   1.397131 A    
C1    C33   1.428731 S    
C62   C63   1.397116 A    
C21   C22   1.400115 A    
C37   H20   1.082395 S    
C131  C132  1.520084 S    
C109  H61   1.085013 S    
C94   H50   1.085372 S    
C135  H100  1.110071 S    
C29   C34   1.384211 A    
C89   C90   1.396706 A    
C88   C89   1.398097 A    
C91   C92   1.393259 A    
C88   H47   1.082570 S    
C59   C60   1.409265 A    
C25   C26   1.404044 A    
C41   C46   1.397179 A    
O3    Zn1   2.022457 S    
C87   C96   1.484734 S    
C53   C58   1.404228 A    
C86   C87   1.405700 A    
C23   C24   1.398265 A    
O18   C81   1.279877 A    
C31   C32   1.385025 A    
C71   C72   1.398397 A    
C43   C52   1.477652 S    
C47   C52   1.380084 A    
C116  H64   1.082279 S    
C29   C30   1.396075 A    
C115  C120  1.404733 A    
C41   H24   1.082336 S    
C27   H15   1.081153 S    
C79   C110  1.441148 S    
O21   C83   1.277076 A    
O28   C130  1.417456 S    
O19   Zn5   2.015585 S    
O20   C82   1.273544 A    
O23   C84   1.277510 A    
O3    C2    1.276078 A    
C126  H79   1.111275 S    
C111  C112  1.382333 A    
C99   C100  1.396091 A    
C121  H68   1.114588 S    
C44   C45   1.401423 A    
C49   C50   1.396273 A    
C6    H3    1.082928 S    
C122  C123  1.525219 S    
C68   C69   1.396526 A    
H33   C64   1.082690 S    
C48   C49   1.406487 A    
C17   O29   1.384495 S    
O6    C3    1.279603 A    
C109  C114  1.383357 A    
C45   C46   1.404396 A    
C132  H93   1.111017 S    
C115  H63   1.083167 S    
C33   C34   1.407557 A    
C127  H83   1.116848 S    
O16   C80   1.279595 A    
C36   C37   1.395305 A    
C50   C51   1.409810 A    
O9    C77   1.274191 A    
C119  H67   1.078289 S    
C75   C76   1.401888 A    
C100  H54   1.075812 S    
O26   C124  1.419172 S    
O10   Zn4   2.016285 S    
C121  H69   1.116774 S    
Zn4   O14   2.023440 S    
C53   C54   1.398461 A    
C85   H45   1.082280 S    
H56   C108  1.082301 S    
Zn2   O8    2.022459 S    
C117  C118  1.397610 A    
C56   H31   1.081465 S    
C7    C8    1.399036 A    
C35   H18   1.081847 S    
C85   C86   1.398406 A    
C17   C18   1.410803 A    
C129  H87   1.110464 S    
C35   C40   1.410414 A    
C55   H30   1.082337 S    
C60   C61   1.403261 A    
C42   H25   1.082918 S    
O12   Zn4   2.016266 S    
C124  H76   1.115859 S    
C125  H78   1.110721 S    
C92   C93   1.411599 A    
C72   H40   1.082371 S    
O18   Zn6   2.023969 S    
C94   C95   1.396504 A    
C134  H99   1.110306 S    
C130  C131  1.537579 S    
C103  H57   1.081644 S    
O17   C81   1.276094 A    
C21   H10   1.077190 S    
C47   C48   1.390753 A    
O8    C4    1.278592 A    
O10   C77   1.284967 A    
C97   H51   1.082501 S    
C57   C58   1.403204 A    
C135  H101  1.110404 S    
O13   C79   1.285047 A    
C74   H42   1.081591 S    
C26   H14   1.081191 S    
Zn5   O21   2.023756 S    
C61   C70   1.479846 S    
C47   H27   1.085768 S    
C132  H95   1.111217 S    
C30   C31   1.419151 A    
C8    C9    1.395649 A    
C53   H28   1.083246 S    
C131  H91   1.107800 S    
C2    C15   1.428346 S    
H23   C46   1.082753 S    
C12   C13   1.411033 A    
C93   C94   1.385055 A    
Zn3   O13   2.016412 S    
C130  H90   1.106696 S    
C66   C67   1.408280 A    
C7    C16   1.477925 S    
C129  H88   1.110761 S    
C5    C10   1.396531 A    
Zn1   O5    2.014166 S    
O4    Zn2   2.014658 S    
Zn4   O16   2.020666 S    
C24   H13   1.083441 S    
C19   H8    1.081471 S    
C105  C114  1.482445 S    
C83   C92   1.434870 S    
C123  H72   1.110799 S    
C122  H71   1.105453 S    
O1    Zn1   2.021536 S    
C15   C16   1.405204 A    
O9    Zn3   2.023480 S    
C23   H12   1.082300 S    
C115  C116  1.397722 A    
C107  H60   1.082362 S    
C134  C135  1.524880 S    
C29   H16   1.085239 S    
C3    C69   1.432964 S    
C71   H39   1.082925 S    
C126  H81   1.110924 S    
O29   C133  1.414526 S    
C37   C38   1.395375 A    
C98   H52   1.082469 S    
C61   C62   1.402795 A    
O12   C78   1.282740 A    
C59   O27   1.387249 S    
C97   C102  1.407650 A    
C128  C129  1.525906 S    
C127  C128  1.530843 S    
C66   C84   1.432373 S    
C36   H19   1.082406 S    
C133  H96   1.112935 S    
O2    C1    1.280140 A    
C32   H17   1.085606 S    
C118  C119  1.397885 A    
C12   C78   1.442288 S    
C124  H75   1.110456 S    
C14   C15   1.391961 A    
C95   C96   1.413215 A    
C50   O26   1.388738 S    
C69   C70   1.408340 A    
C19   C20   1.393594 A    
C20   C21   1.394830 A    
C43   C44   1.401854 A    
O22   C83   1.281717 A    
C81   C113  1.427775 S    
O25   C121  1.412818 S    
C89   H48   1.082292 S    
C86   H46   1.081621 S    
O14   C79   1.276727 A    
C59   C64   1.401084 A    
C118  H66   1.081773 S    
C45   O25   1.379800 S    
C13   C22   1.482147 S    
C54   H29   1.082233 S    
C71   C76   1.404350 A    
C91   C96   1.381892 A    
C128  H85   1.110813 S    
C106  H59   1.083332 S    
C6    C7    1.406758 A    
Zn6   O22   2.016039 S    
C31   C40   1.492917 S    
C122  H70   1.110396 S    
C104  H58   1.083124 S    
C125  C126  1.526295 S    
C109  C110  1.399612 A    
C72   C73   1.397898 A    
C107  C108  1.397392 A    
C73   C74   1.397611 A    
C11   O28   1.392155 S    
C4    C51   1.437956 S    
C44   H26   1.082454 S    
C24   C25   1.406210 A    
C63   H36   1.082221 S    
C9    C10   1.396258 A    
C98   C99   1.396062 A    
C51   C52   1.409907 A    
H1    C10   1.081724 S    
C5    C6    1.397092 A    
C57   H32   1.081929 S    
Zn5   O23   2.020021 S    
C135  H102  1.108601 S    
O2    Zn2   2.014164 S    
C60   H34   1.082221 S    
C74   C75   1.399231 A    
O11   C78   1.278039 A    
C116  C117  1.397190 A    
C39   C40   1.401985 A    
C27   C28   1.396272 A    
C30   C82   1.436750 S    
C8    H4    1.083108 S    
C38   C39   1.394468 A    
C77   C95   1.433909 S    
C75   H43   1.080698 S    
C129  H86   1.109137 S    
C130  H89   1.111135 S    
C121  C122  1.524114 S    
