data_mof_unit_pretest_747.cif
_audit_creation_date              2012-12-11T14:54:44-0500
_audit_creation_method            fapswitch 2.2
_symmetry_space_group_name_H-M    P1
_symmetry_Int_Tables_number       1
_space_group_crystal_system       triclinic
_cell_length_a                    18.859136
_cell_length_b                    11.10697
_cell_length_c                    18.633641
_cell_angle_alpha                 90.606375
_cell_angle_beta                  90.28149
_cell_angle_gamma                 89.875331
_cell_volume                      3902.87437276

loop_
_atom_site_label
_atom_site_type_symbol
_atom_type_description
_atom_site_fract_x
_atom_site_fract_y
_atom_site_fract_z
_atom_type_partial_charge
C1    C     C_R   0.731789 0.379690 0.647875 0.608545
C2    C     C_R   0.265353 0.392598 0.346179 0.585318
C3    C     C_R   0.230824 0.875435 0.646934 0.622492
C4    C     C_R   0.768473 0.883676 0.351751 0.545083
C5    C     C_3   0.509201 0.342764 0.448718 0.376453
C6    C     C_3   0.536618 0.349499 0.525052 0.311197
C7    C     C_3   0.054037 0.817729 0.441774 0.327758
C8    C     C_3   0.076066 0.820059 0.519795 0.246468
C9    C     C_R   0.686926 0.921199 0.530375 -0.124138
C10   C     C_R   0.283192 0.863235 0.456644 -0.087549
C11   C     C_R   0.172173 0.483340 0.518109 -0.065024
C12   C     C_R   0.792982 0.375884 0.460539 -0.067101
C13   C     C_R   0.688033 0.922052 0.456045 -0.143003
C14   C     C_R   0.279122 0.833712 0.528156 -0.066875
C15   C     C_R   0.176612 0.462181 0.443384 -0.102903
C16   C     C_R   0.788737 0.347838 0.532180 -0.097059
C17   C     C_R   0.751727 0.940420 0.421135 -0.017457
C18   C     C_R   0.253220 0.915266 0.578572 0.042239
C19   C     C_R   0.242576 0.470081 0.409360 0.022894
C20   C     C_R   0.755155 0.426934 0.579954 0.049962
C21   C     C_R   0.808652 0.991811 0.459926 0.364153
C22   C     C_R   0.229812 0.025235 0.558340 0.347776
C23   C     C_R   0.297098 0.530924 0.447165 0.390488
C24   C     C_R   0.725796 0.534993 0.555448 0.379619
C25   C     C_R   0.811993 0.981229 0.533603 0.200222
C26   C     C_R   0.221208 0.047987 0.486424 0.231400
C27   C     C_R   0.298410 0.533947 0.522276 0.201489
C28   C     C_R   0.718867 0.552710 0.481951 0.211150
C29   C     C_R   0.749271 0.944970 0.570057 -0.044299
C30   C     C_R   0.256782 0.974029 0.434856 -0.034162
C31   C     C_R   0.233716 0.507662 0.559586 -0.042129
C32   C     C_R   0.760953 0.480857 0.435327 -0.039128
C33   C     C_R   0.498388 0.056976 0.962329 -0.179146
C34   C     C_R   0.497451 0.056044 0.035400 -0.179435
C35   C     C_R   0.998359 0.556967 0.962315 -0.179155
C36   C     C_R   0.997422 0.556041 0.035386 -0.179610
C37   C     C_R   0.497167 0.163845 0.074680 -0.024726
C38   C     C_R   0.502137 0.165646 0.925284 -0.022774
C39   C     C_R   0.997142 0.663845 0.074663 -0.025390
C40   C     C_R   0.002109 0.665635 0.925266 -0.024479
C41   C     C_R   0.503816 0.274996 0.038974 0.209045
C42   C     C_R   0.498158 0.276210 0.963318 0.210002
C43   C     C_R   0.003780 0.774992 0.038948 0.208442
C44   C     C_R   0.998118 0.776197 0.963292 0.207288
C45   C     C_R   0.530055 0.153698 0.647476 0.610183
C46   C     C_R   0.432484 0.149518 0.359839 0.557890
C47   C     C_R   0.031223 0.654726 0.647552 0.613682
C48   C     C_R   0.937885 0.651073 0.360580 0.545339
C49   C     C_R   0.779422 0.061046 0.981752 0.384202
C50   C     C_R   0.222410 0.064501 0.018891 0.383546
C51   C     C_R   0.279428 0.561048 0.981751 0.384172
C52   C     C_R   0.722415 0.564508 0.018890 0.383482
C53   C     C_R   0.787688 0.030157 0.053054 -0.116347
C54   C     C_R   0.214127 0.034054 0.947167 -0.110965
C55   C     C_R   0.287695 0.530156 0.053053 -0.116063
C56   C     C_R   0.714131 0.534061 0.947167 -0.111979
C57   C     C_R   0.742999 0.944461 0.084167 -0.030072
C58   C     C_R   0.257697 0.946032 0.915592 -0.029467
C59   C     C_R   0.243001 0.444465 0.084166 -0.028869
C60   C     C_R   0.757697 0.446033 0.915594 -0.029695
C61   C     C_R   0.681568 0.909328 0.046783 0.404150
C62   C     C_R   0.318435 0.908012 0.952832 0.399057
C63   C     C_R   0.181566 0.409346 0.046785 0.404504
C64   C     C_R   0.818435 0.408012 0.952834 0.399544
C65   C     C_R   0.674625 0.937071 0.973948 -0.152181
C66   C     C_R   0.325309 0.935280 0.025947 -0.153053
C67   C     C_R   0.174619 0.437101 0.973951 -0.152190
C68   C     C_R   0.825308 0.435279 0.025949 -0.153176
C69   C     C_R   0.727001 0.006021 0.939702 -0.053020
C70   C     C_R   0.273763 0.006786 0.060560 -0.053878
C71   C     C_R   0.226998 0.506040 0.939703 -0.053416
C72   C     C_R   0.773764 0.506789 0.060560 -0.053961
C73   C     C_R   0.741494 0.972118 0.645989 0.595341
C74   C     C_R   0.269661 0.013067 0.361417 0.568882
C75   C     C_R   0.227939 0.520938 0.639254 0.578166
C76   C     C_R   0.770566 0.514954 0.360907 0.545011
C77   C     C_R   0.731900 0.383597 0.850546 0.564036
C78   C     C_R   0.268204 0.382804 0.149265 0.549406
C79   C     C_R   0.231902 0.883601 0.850542 0.569625
C80   C     C_R   0.768200 0.882813 0.149273 0.560591
C81   C     C_R   0.531029 0.157498 0.852793 0.564375
C82   C     C_R   0.468892 0.156680 0.147259 0.571372
C83   C     C_R   0.031022 0.657496 0.852785 0.565041
C84   C     C_R   0.968887 0.656680 0.147254 0.569988
C85   C     C_R   0.726258 0.024505 0.861506 0.575030
C86   C     C_R   0.273994 0.024646 0.138869 0.580560
C87   C     C_R   0.226256 0.524514 0.861504 0.578038
C88   C     C_R   0.773994 0.524647 0.138869 0.582952
C89   C     C_R   0.438713 0.151676 0.438512 -0.091910
C90   C     C_R   0.484819 0.157188 0.583183 -0.018558
C91   C     C_R   0.956112 0.656676 0.435569 -0.100446
C92   C     C_R   0.993204 0.663849 0.580641 -0.008848
C93   C     C_R   0.455208 0.258371 0.473077 -0.044920
C94   C     C_R   0.479854 0.261708 0.543237 -0.045069
C95   C     C_R   0.986282 0.760120 0.464930 0.005928
C96   C     C_R   0.006545 0.761929 0.536256 0.002847
C97   C     C_R   0.455845 0.050252 0.552811 0.387274
C98   C     C_R   0.435770 0.046613 0.480143 0.362001
C99   C     C_R   0.957089 0.563513 0.552449 0.370018
C100  C     C_R   0.942979 0.557312 0.479452 0.337513
Cr1   Cr    Cr6+3 0.771950 0.169480 0.750100 1.210084
Cr2   Cr    Cr6+3 0.228050 0.169480 0.249900 1.195254
Cr3   Cr    Cr6+3 0.271950 0.669480 0.750100 1.184997
Cr4   Cr    Cr6+3 0.728050 0.669480 0.249900 1.168507
Cr5   Cr    Cr6+3 0.614930 0.323340 0.749170 1.146163
Cr6   Cr    Cr6+3 0.385070 0.323340 0.250830 1.165151
Cr7   Cr    Cr6+3 0.114930 0.823340 0.749170 1.153026
Cr8   Cr    Cr6+3 0.885070 0.823340 0.250830 1.160723
Cr9   Cr    Cr6+3 0.616590 0.010620 0.750610 1.100987
Cr10  Cr    Cr6+3 0.383410 0.010620 0.249390 1.094311
Cr11  Cr    Cr6+3 0.116590 0.510620 0.750610 1.118938
Cr12  Cr    Cr6+3 0.883410 0.510620 0.249390 1.094771
H1    H     H_    0.832262 0.067913 0.082288 0.214562
H2    H     H_    0.170272 0.073552 0.917994 0.212161
H3    H     H_    0.332274 0.567898 0.082285 0.214548
H4    H     H_    0.670280 0.573566 0.917992 0.210952
H5    H     H_    0.629662 0.901835 0.944218 0.178335
H6    H     H_    0.369292 0.897249 0.055607 0.178862
H7    H     H_    0.129652 0.401875 0.944224 0.178612
H8    H     H_    0.869290 0.397243 0.055610 0.178975
H9    H     H_    0.547151 0.300944 0.410145 0.171078
H10   H     H_    0.530723 0.437751 0.552438 0.245860
H11   H     H_    0.087359 0.759136 0.406722 0.139732
H12   H     H_    0.082194 0.911486 0.543726 0.220590
H13   H     H_    0.636587 0.906285 0.556561 0.220445
H14   H     H_    0.305907 0.799692 0.418773 0.231851
H15   H     H_    0.121481 0.472141 0.544193 0.197906
H16   H     H_    0.819674 0.313600 0.424530 0.234681
H17   H     H_    0.639317 0.912051 0.426162 0.203150
H18   H     H_    0.291377 0.745969 0.543946 0.196587
H19   H     H_    0.130904 0.427765 0.414545 0.195192
H20   H     H_    0.807410 0.260731 0.548974 0.186381
H21   H     H_    0.499195 0.970312 0.935106 0.219758
H22   H     H_    0.494199 0.968991 0.060832 0.216279
H23   H     H_    0.999171 0.470302 0.935093 0.220625
H24   H     H_    0.994177 0.468990 0.060821 0.216565
O1    O     O_R   0.787510 0.042610 0.670410 -0.423574
O2    O     O_R   0.212490 0.042610 0.329590 -0.422785
O3    O     O_R   0.287510 0.542610 0.670410 -0.414599
O4    O     O_R   0.712490 0.542610 0.329590 -0.410183
O5    O     O_R   0.556450 0.252890 0.823790 -0.440606
O6    O     O_R   0.443550 0.252890 0.176210 -0.431548
O7    O     O_R   0.056450 0.752890 0.823790 -0.437026
O8    O     O_R   0.943550 0.752890 0.176210 -0.430213
O9    O     O_R   0.545750 0.051070 0.830560 -0.532419
O10   O     O_R   0.454250 0.051070 0.169440 -0.531523
O11   O     O_R   0.045750 0.551070 0.830560 -0.530473
O12   O     O_R   0.954250 0.551070 0.169440 -0.530624
O13   O     O_R   0.681210 0.959150 0.825320 -0.515494
O14   O     O_R   0.318790 0.959150 0.174680 -0.515351
O15   O     O_R   0.181210 0.459150 0.825320 -0.507685
O16   O     O_R   0.818790 0.459150 0.174680 -0.512338
O17   O     O_3   0.667820 0.167810 0.749960 -0.348806
O18   O     O_3   0.332180 0.167810 0.250040 -0.382985
O19   O     O_3   0.167820 0.667810 0.749960 -0.371667
O20   O     O_3   0.832180 0.667810 0.250040 -0.381909
O21   O     O_R   0.765670 0.292090 0.675090 -0.500988
O22   O     O_R   0.234330 0.292090 0.324910 -0.459169
O23   O     O_R   0.265670 0.792090 0.675090 -0.496622
O24   O     O_R   0.734330 0.792090 0.324910 -0.485006
O25   O     O_R   0.670220 0.409020 0.668560 -0.423320
O26   O     O_R   0.329780 0.409020 0.331440 -0.412472
O27   O     O_R   0.170220 0.909020 0.668560 -0.445557
O28   O     O_R   0.829780 0.909020 0.331440 -0.429509
O29   O     O_R   0.556580 0.251590 0.674980 -0.462798
O30   O     O_R   0.443420 0.251590 0.325020 -0.457113
O31   O     O_R   0.056580 0.751590 0.674980 -0.467829
O32   O     O_R   0.943420 0.751590 0.325020 -0.450681
O33   O     O_R   0.545890 0.049670 0.670030 -0.448633
O34   O     O_R   0.454110 0.049670 0.329970 -0.444740
O35   O     O_R   0.045890 0.549670 0.670030 -0.452572
O36   O     O_R   0.954110 0.549670 0.329970 -0.437463
O37   O     O_R   0.681340 0.957860 0.676500 -0.488862
O38   O     O_R   0.318660 0.957860 0.323500 -0.477145
O39   O     O_R   0.181340 0.457860 0.676500 -0.450308
O40   O     O_R   0.818660 0.457860 0.323500 -0.475194
O41   O     O_R   0.787380 0.044010 0.830940 -0.371111
O42   O     O_R   0.212620 0.044010 0.169060 -0.374524
O43   O     O_R   0.287380 0.544010 0.830940 -0.372609
O44   O     O_R   0.712620 0.544010 0.169060 -0.373258
O45   O     O_R   0.765540 0.293390 0.823910 -0.432232
O46   O     O_R   0.234460 0.293390 0.176090 -0.442061
O47   O     O_R   0.265540 0.793390 0.823910 -0.435018
O48   O     O_R   0.734460 0.793390 0.176090 -0.434533
O49   O     O_R   0.670090 0.410410 0.829090 -0.499817
O50   O     O_R   0.329910 0.410410 0.170910 -0.504707
O51   O     O_R   0.170090 0.910410 0.829090 -0.493511
O52   O     O_R   0.829910 0.910410 0.170910 -0.499517
F1    F     F_    0.455056 0.945722 0.589964 -0.553101
F2    F     F_    0.423063 0.938026 0.448951 -0.565383
F3    F     F_    0.943751 0.465394 0.593133 -0.578623
F4    F     F_    0.926013 0.449218 0.450283 -0.586156
F5    F     F_    0.825469 0.139556 0.952912 -0.521389
F6    F     F_    0.176886 0.144278 0.048612 -0.523764
F7    F     F_    0.325487 0.639537 0.952908 -0.522430
F8    F     F_    0.676894 0.644291 0.048611 -0.524488
F9    F     F_    0.629395 0.847542 0.079958 -0.547308
F10   F     F_    0.369674 0.842959 0.919328 -0.547102
F11   F     F_    0.129395 0.347554 0.079959 -0.546816
F12   F     F_    0.869674 0.342959 0.919331 -0.544256
F13   F     F_    0.042971 0.931716 0.414584 -0.528257
F14   F     F_    0.132567 0.743714 0.532689 -0.742700
F15   F     F_    0.476625 0.445254 0.423511 -0.492353
F16   F     F_    0.603934 0.300263 0.531038 -0.675217
F17   F     F_    0.862874 0.046998 0.425436 -0.536827
F18   F     F_    0.212698 0.107598 0.610310 -0.575388
F19   F     F_    0.352307 0.578077 0.410398 -0.532834
F20   F     F_    0.692707 0.611044 0.602193 -0.584182
S1    S     S_3+6 0.896139 0.010918 0.576154 0.084912
O53   O     O_2   0.910518 0.916385 0.631509 -0.263219
O54   O     O_2   0.955002 0.008808 0.522337 -0.181724
O55   O     O_3   0.897409 0.146890 0.617076 -0.468191
H25   H     H_    0.927192 0.198758 0.586594 0.402081
S2    S     S_3+6 0.184713 0.186738 0.470923 0.069751
O56   O     O_2   0.144099 0.193776 0.401757 -0.194516
O57   O     O_2   0.135880 0.227005 0.530155 -0.183715
O58   O     O_3   0.260356 0.265265 0.473561 -0.609602
H26   H     H_    0.276002 0.265507 0.524400 0.367373
S3    S     S_3+6 0.383147 0.567839 0.564751 0.088611
O59   O     O_2   0.406390 0.458121 0.604914 -0.312473
O60   O     O_2   0.438454 0.600617 0.511063 -0.089541
O61   O     O_3   0.380948 0.683477 0.623751 -0.473815
H27   H     H_    0.428709 0.685210 0.646104 0.388449
S4    S     S_3+6 0.634096 0.602349 0.452428 0.104308
O62   O     O_2   0.604877 0.498482 0.410900 -0.234119
O63   O     O_2   0.586261 0.633744 0.514089 -0.171292
O64   O     O_3   0.633195 0.714860 0.394588 -0.516719
H28   H     H_    0.583565 0.719776 0.377107 0.388596
S5    S     S_3+6 0.531258 0.405832 0.087442 0.105307
O65   O     O_2   0.577019 0.370053 0.150023 -0.265261
O66   O     O_2   0.573114 0.485864 0.039351 -0.167106
O67   O     O_3   0.460552 0.482618 0.117839 -0.470969
H29   H     H_    0.480507 0.553786 0.143180 0.374647
S6    S     S_3+6 0.472841 0.409726 0.917863 0.105686
O68   O     O_2   0.425846 0.378240 0.855034 -0.260647
O69   O     O_2   0.433059 0.491360 0.967997 -0.164889
O70   O     O_3   0.544594 0.482807 0.888357 -0.475298
H30   H     H_    0.525745 0.555629 0.864613 0.371847
S7    S     S_3+6 0.031235 0.905830 0.087398 0.106068
O71   O     O_2   0.076983 0.870069 0.149991 -0.264707
O72   O     O_2   0.073107 0.985818 0.039294 -0.167943
O73   O     O_3   0.960532 0.982650 0.117770 -0.470434
H31   H     H_    0.980477 0.054138 0.142791 0.376765
S8    S     S_3+6 0.972808 0.909702 0.917818 0.109829
O74   O     O_2   0.925827 0.878204 0.854980 -0.253763
O75   O     O_2   0.933019 0.991347 0.967939 -0.165701
O76   O     O_3   0.044569 0.982776 0.888323 -0.472874
H32   H     H_    0.025721 0.055534 0.864508 0.377340

loop_
_geom_bond_atom_site_label_1
_geom_bond_atom_site_label_2
_ccdc_geom_bond_type
C5    F15   S    
C58   C62   A    
Cr5   O17   S    
S8    O75   D    
C27   S3    S    
C93   C94   A    
C55   C59   A    
C67   H7    S    
C34   C37   A    
C77   O49   A    
C41   C42   A    
C14   C18   A    
C19   C23   A    
C95   C96   A    
C52   F8    S    
C86   O42   A    
C82   O6    A    
S6    O70   S    
C99   F3    S    
S4    O62   D    
Cr2   O22   S    
C66   H6    S    
C97   C98   A    
C69   C85   S    
C7    C8    S    
C46   C89   S    
C4    O24   A    
C15   C19   A    
Cr8   O28   S    
C50   C54   A    
C55   H3    S    
C79   O51   A    
Cr11  O39   S    
C64   C68   A    
Cr9   O33   S    
C39   C84   S    
C74   O38   A    
S5    O67   S    
Cr11  O11   S    
C86   O14   A    
Cr5   O5    S    
C5    C6    S    
C30   C74   S    
Cr9   O37   S    
C29   C73   S    
C34   H22   S    
C21   F17   S    
C5    H9    S    
C92   C96   A    
S1    O55   S    
C47   O31   A    
S8    O74   D    
C22   F18   S    
C3    C18   S    
Cr2   O2    S    
Cr5   O49   S    
S4    O63   D    
C9    C13   A    
C28   S4    S    
C82   O10   A    
C48   O36   A    
C11   C15   A    
C54   H2    S    
Cr5   O25   S    
C28   C32   A    
S7    O71   D    
C79   O47   A    
C6    C94   S    
C48   C91   S    
C8    C96   S    
C77   O45   A    
C4    O28   A    
Cr6   O6    S    
C33   H21   S    
C78   O50   A    
C23   C27   A    
C91   C100  A    
Cr9   O17   S    
Cr2   O18   S    
C90   C97   A    
Cr3   O43   S    
C2    O22   A    
Cr10  O10   S    
C97   F1    S    
Cr8   O32   S    
C1    O25   A    
C63   F11   S    
C49   C69   A    
O70   H30   S    
C12   C32   A    
C89   C93   A    
C47   O35   A    
C88   O16   A    
C57   C80   S    
C40   C83   S    
C100  F4    S    
S6    O69   D    
Cr4   O24   S    
C47   C92   S    
C65   H5    S    
C36   H24   S    
C59   C78   S    
C72   C88   S    
C53   H1    S    
C90   C94   A    
Cr7   O31   S    
Cr1   O21   S    
C25   C29   A    
C63   C67   A    
C60   C77   S    
C62   C66   A    
C27   C31   A    
Cr2   O46   S    
C12   C16   A    
C76   O40   A    
C50   F6    S    
Cr6   O50   S    
S1    O53   D    
C10   C14   A    
C61   F9    S    
S3    O59   D    
C53   C57   A    
S2    O56   D    
C8    H12   S    
C39   C43   A    
C51   C55   A    
Cr6   O18   S    
O58   H26   S    
C75   O39   A    
C24   F20   S    
C9    H13   S    
Cr12  O12   S    
Cr11  O15   S    
C68   C72   A    
C78   O46   A    
C35   C36   A    
Cr4   O44   S    
C84   O12   A    
C11   H15   S    
C43   C44   A    
C6    F16   S    
S5    O65   D    
Cr10  O18   S    
C88   O44   A    
Cr3   O3    S    
S3    O60   D    
C74   O2    A    
C73   O37   A    
C10   C30   A    
C31   C75   S    
O64   H28   S    
Cr8   O20   S    
C85   O41   A    
Cr1   O17   S    
Cr9   O13   S    
C16   C20   A    
C52   C72   A    
Cr12  O16   S    
C33   C34   A    
C56   H4    S    
S7    O72   D    
Cr4   O20   S    
C25   S1    S    
C45   C90   S    
C62   F10   S    
C49   F5    S    
C71   C87   S    
C43   S7    S    
C98   F2    S    
C83   O11   A    
C4    C17   S    
C58   C79   S    
Cr3   O19   S    
Cr12  O40   S    
C87   O43   A    
C41   S5    S    
C81   O5    A    
C26   C30   A    
C81   O9    A    
Cr4   O48   S    
C64   F12   S    
C38   C81   S    
Cr12  O20   S    
Cr2   O42   S    
Cr3   O47   S    
C37   C82   S    
Cr11  O35   S    
Cr4   O4    S    
Cr11  O19   S    
S6    O68   D    
C6    H10   S    
C76   O4    A    
C35   H23   S    
C70   C86   S    
S4    O64   S    
Cr10  O34   S    
Cr8   O8    S    
Cr1   O45   S    
C44   S8    S    
C14   H18   S    
C21   C25   A    
C1    C20   S    
Cr1   O1    S    
C46   O30   A    
C23   F19   S    
C2    C19   S    
C18   C22   A    
Cr8   O52   S    
C36   C39   A    
Cr9   O9    S    
C24   C28   A    
Cr7   O27   S    
Cr10  O14   S    
S2    O58   S    
C45   O33   A    
C32   C76   S    
C5    C93   S    
O76   H32   S    
C51   C71   A    
C57   C61   A    
C12   H16   S    
Cr6   O26   S    
C3    O27   A    
Cr7   O19   S    
C7    C95   S    
C59   C63   A    
C33   C38   A    
C99   C100  A    
C60   C64   A    
C89   C98   A    
C26   S2    S    
C1    O21   A    
C35   C40   A    
C50   C70   A    
S2    O57   D    
C7    F13   S    
S8    O76   S    
C75   O3    A    
C68   H8    S    
S3    O61   S    
C83   O7    A    
C9    C29   A    
C42   S6    S    
Cr3   O23   S    
C66   C70   A    
Cr10  O38   S    
C73   O1    A    
Cr6   O30   S    
C65   C69   A    
O73   H31   S    
C8    F14   S    
O67   H29   S    
S1    O54   D    
Cr5   O29   S    
C56   C60   A    
S7    O73   S    
C67   C71   A    
C80   O48   A    
C61   C65   A    
C37   C41   A    
O61   H27   S    
C16   H20   S    
Cr7   O7    S    
C85   O13   A    
C49   C53   A    
Cr1   O41   S    
C3    O23   A    
C11   C31   A    
C13   C17   A    
C38   C42   A    
C46   O34   A    
C40   C44   A    
C15   H19   S    
O55   H25   S    
C91   C95   A    
S5    O66   D    
C22   C26   A    
C54   C58   A    
C84   O8    A    
Cr7   O51   S    
C87   O15   A    
C10   H14   S    
C45   O29   A    
C48   O32   A    
C20   C24   A    
C51   F7    S    
C13   H17   S    
C52   C56   A    
C92   C99   A    
C7    H11   S    
C2    O26   A    
C80   O52   A    
Cr12  O36   S    
C17   C21   A    
