data_mof_unit_pretest_1178.cif
_audit_creation_date              2012-12-11T17:41:42-0500
_audit_creation_method            fapswitch 2.2
_symmetry_space_group_name_H-M    P1
_symmetry_Int_Tables_number       1
_space_group_crystal_system       triclinic
_cell_length_a                    15.569191
_cell_length_b                    14.983949
_cell_length_c                    15.108608
_cell_angle_alpha                 109.86508
_cell_angle_beta                  121.5893
_cell_angle_gamma                 58.836337
_cell_volume                      2557.6745727

loop_
_atom_site_label
_atom_site_type_symbol
_atom_type_description
_atom_site_fract_x
_atom_site_fract_y
_atom_site_fract_z
_atom_type_partial_charge
C1    C     C_R   0.802705 0.938034 0.773738 -0.237291
C2    C     C_R   0.306038 0.397348 0.205615 -0.089899
C3    C     C_R   0.648772 0.788868 0.905907 -0.107315
C4    C     C_R   0.383959 0.305332 0.178035 -0.149414
C5    C     C_R   0.682088 0.865912 0.978535 0.104897
C6    C     C_R   0.350067 0.250198 0.079043 0.111759
C7    C     C_R   0.795745 0.844374 0.031685 -0.201831
C8    C     C_R   0.236898 0.289848 0.007871 -0.155705
C9    C     C_R   0.874309 0.748251 0.009826 -0.058295
C10   C     C_R   0.159302 0.382137 0.035702 -0.100873
C11   C     C_R   0.840204 0.672531 0.936180 -0.086963
C12   C     C_R   0.241400 0.009987 0.208852 -0.165629
C13   C     C_R   0.193786 0.435741 0.134491 -0.057411
C14   C     C_R   0.600083 0.986121 0.096202 -0.222488
C15   C     C_R   0.432438 0.135124 0.954096 -0.238329
C16   C     C_R   0.216440 0.285569 0.465205 0.509323
C17   C     C_R   0.800614 0.724877 0.557477 0.513348
C18   C     C_R   0.514592 0.072193 0.118558 0.063955
C19   C     C_R   0.512113 0.043093 0.928473 0.067394
C20   C     C_R   0.432915 0.151371 0.050551 0.030629
C21   C     C_R   0.598608 0.968548 0.001013 0.019097
C22   C     C_2   0.113013 0.396763 0.577371 -0.178062
C23   C     C_R   0.175913 0.297094 0.533078 -0.022375
C24   C     C_2   0.973508 0.645994 0.525761 -0.200045
C25   C     C_2   0.125345 0.482273 0.586965 -0.190963
C26   C     C_2   0.042992 0.584284 0.603925 -0.024623
C27   C     C_2   0.984453 0.952773 0.846283 -0.297027
C28   C     C_2   0.145351 0.888350 0.098633 -0.300304
C29   C     C_R   0.229909 0.879596 0.682741 -0.101128
C30   C     C_R   0.775270 0.224266 0.447223 -0.102749
C31   C     C_R   0.324603 0.791459 0.677901 -0.148599
C32   C     C_R   0.686112 0.304165 0.468789 -0.122363
C33   C     C_R   0.314461 0.707588 0.600856 0.097228
C34   C     C_R   0.860942 0.722578 0.513499 0.059912
C35   C     C_R   0.703583 0.347164 0.572057 0.094574
C36   C     C_R   0.207218 0.713638 0.529121 -0.136012
C37   C     C_R   0.812088 0.311593 0.652774 -0.159053
C38   C     C_R   0.112711 0.801767 0.534500 -0.072491
C39   C     C_R   0.901104 0.232003 0.630746 -0.024936
C40   C     C_R   0.595030 0.228973 0.554125 -0.113349
C41   C     C_R   0.408847 0.785078 0.517252 -0.018071
C42   C     C_R   0.124025 0.884668 0.611211 -0.080375
C43   C     C_R   0.882643 0.188103 0.528142 -0.044150
C44   C     C_R   0.419778 0.513998 0.579596 -0.233100
C45   C     C_R   0.505360 0.324664 0.534716 -0.001984
C46   C     C_R   0.609334 0.529126 0.625754 -0.238703
C47   C     C_R   0.512053 0.424431 0.570703 0.076520
C48   C     C_R   0.509436 0.619505 0.609970 0.053828
C49   C     C_R   0.608889 0.432225 0.595087 0.026192
C50   C     C_R   0.415619 0.613498 0.596658 0.043886
C51   C     C_2   0.049492 0.876670 0.910895 0.589781
C52   C     C_2   0.142139 0.888114 0.007948 0.593383
C53   C     C_R   0.409436 0.038182 0.733189 -0.137573
C54   C     C_R   0.595031 0.012295 0.288487 -0.123376
C55   C     C_R   0.410449 0.307212 0.468741 -0.134416
C56   C     C_R   0.501530 0.705844 0.577525 -0.010077
C57   C     C_R   0.591904 0.715604 0.594438 -0.100291
C58   C     C_R   0.594889 0.974982 0.805025 -0.116410
C59   C     C_R   0.410258 0.084354 0.209023 -0.060003
C60   C     C_R   0.220924 0.198384 0.562739 -0.203860
C61   C     C_R   0.798700 0.813073 0.463199 -0.215923
C62   C     C_R   0.805430 0.026594 0.684492 0.654882
C63   C     C_R   0.239480 0.918509 0.297389 0.690982
C64   C     C_R   0.868137 0.973588 0.772727 0.032773
C65   C     C_R   0.208423 0.935070 0.197521 0.007236
C66   C     C_R   0.504475 0.025668 0.826306 0.050492
C67   C     C_R   0.505175 0.062767 0.203762 0.025800
C68   C     C_R   0.727603 0.692620 0.884751 -0.145803
F1    F     F_    0.848416 0.049481 0.641319 -0.743618
F2    F     F_    0.216942 0.855470 0.320431 -0.736013
F3    F     F_    0.210520 0.916205 0.004393 -0.722518
F4    F     F_    0.020555 0.800233 0.898547 -0.729606
H1    H     H_    0.828545 0.883524 0.823808 0.208685
H2    H     H_    0.470703 0.277007 0.233862 0.108742
H3    H     H_    0.823014 0.902630 0.088652 0.128352
H4    H     H_    0.208387 0.248640 0.931482 0.109423
H5    H     H_    0.961591 0.732469 0.049964 0.140868
H6    H     H_    0.072285 0.411878 0.980751 0.104803
H7    H     H_    0.662372 0.924695 0.148352 0.134083
H8    H     H_    0.370203 0.193549 0.898697 0.133583
H9    H     H_    0.027085 0.597612 0.669919 0.215649
H10   H     H_    0.183081 0.478592 0.564503 0.151417
H11   H     H_    0.993952 0.631027 0.461910 0.128652
H12   H     H_    0.226502 0.045891 0.148303 0.194304
H13   H     H_    0.055110 0.400895 0.599907 0.162829
H14   H     H_    0.050788 0.952818 0.615191 0.159186
H15   H     H_    0.951599 0.126303 0.511317 0.092513
H16   H     H_    0.238691 0.943869 0.742145 0.121478
H17   H     H_    0.761121 0.190508 0.367746 0.107583
H18   H     H_    0.405780 0.788522 0.734103 0.109474
H19   H     H_    0.603383 0.331997 0.405476 0.108671
H20   H     H_    0.196461 0.650840 0.468264 0.109273
H21   H     H_    0.827297 0.344769 0.732608 0.109223
H22   H     H_    0.030634 0.805877 0.478950 0.106471
H23   H     H_    0.091623 0.862826 0.098957 0.162485
H24   H     H_    0.984370 0.204156 0.693243 0.092409
H25   H     H_    0.349358 0.506359 0.568983 0.123386
H26   H     H_    0.684281 0.531669 0.641808 0.135361
H27   H     H_    0.680773 0.211918 0.606454 0.167570
H28   H     H_    0.323353 0.808443 0.498068 0.167747
H29   H     H_    0.325761 0.067197 0.723305 0.092377
H30   H     H_    0.681347 0.994261 0.315221 0.102406
H31   H     H_    0.326950 0.365918 0.434108 0.168572
H32   H     H_    0.675306 0.679616 0.652774 0.111513
H33   H     H_    0.681145 0.953603 0.859078 0.115914
H34   H     H_    0.012535 0.010149 0.856473 0.155278
H35   H     H_    0.324973 0.130860 0.159110 0.110225
H36   H     H_    0.198806 0.178514 0.607811 0.121327
H37   H     H_    0.826797 0.842589 0.431897 0.134445
H38   H     H_    0.096085 0.406297 0.390082 0.316613
H39   H     H_    0.808586 0.710619 0.682467 0.312398
H40   H     H_    0.901046 0.598134 0.919364 0.111444
H41   H     H_    0.133517 0.507044 0.155876 0.108047
H42   H     H_    0.701464 0.633535 0.828728 0.120684
H43   H     H_    0.332768 0.438915 0.282131 0.116245
H44   H     H_    0.562000 0.803755 0.866067 0.107732
N1    N     N_R   0.705410 0.966550 0.689210 -0.094127
N2    N     N_R   0.556610 0.796750 0.548620 -0.053994
N3    N     N_R   0.556610 0.951620 0.703500 -0.045511
N4    N     N_R   0.443390 0.048380 0.296500 -0.044132
N5    N     N_R   0.294590 0.131500 0.522480 -0.068658
N6    N     N_R   0.705410 0.868500 0.477520 -0.064228
N7    N     N_R   0.705410 0.023370 0.632390 -0.109119
N8    N     N_R   0.294590 0.976630 0.367610 -0.119507
N9    N     N_R   0.294590 0.033450 0.310790 -0.093652
N10   N     N_R   0.294590 0.188320 0.465660 -0.071988
N11   N     N_R   0.705410 0.811680 0.534340 -0.107488
N12   N     N_R   0.556610 0.157790 0.497330 -0.043754
N13   N     N_R   0.443390 0.842210 0.502670 -0.050040
N14   N     N_R   0.443390 0.997080 0.657540 -0.040278
N15   N     N_R   0.556610 0.002920 0.342460 -0.036451
N16   N     N_R   0.443390 0.203250 0.451380 -0.039741
Ni1   Ni    Ni4+2 0.629830 0.882720 0.617850 0.201417
Ni2   Ni    Ni4+2 0.370170 0.117280 0.382150 0.246323
Ni3   Ni    Ni4+2 0.629830 0.013030 0.487540 0.248439
Ni4   Ni    Ni4+2 0.370170 0.986970 0.512460 0.223027
O1    O     O_3   0.167440 0.350002 0.389524 -0.804463
O2    O     O_3   0.842654 0.664724 0.633940 -0.787994

loop_
_geom_bond_atom_site_label_1
_geom_bond_atom_site_label_2
_ccdc_geom_bond_type
N9    Ni2   S    
C41   N13   A    
C63   C65   A    
C59   N4    A    
C29   C42   A    
N4    N15   A    
C14   C18   A    
C3    C68   A    
N1    Ni1   S    
C33   C36   A    
C40   H27   S    
C63   N8    A    
C10   H6    S    
C47   C49   A    
C15   C19   A    
C54   N15   A    
C46   C49   A    
N3    Ni1   S    
C28   H23   S    
C6    C8    A    
C14   C21   A    
C35   C37   A    
C24   H11   S    
C24   C26   D    
C38   C42   A    
N15   Ni3   S    
C3    H44   S    
C32   H19   S    
C40   N12   A    
C55   H31   S    
C8    H4    S    
N3    N14   A    
C56   C57   A    
C12   H12   S    
C19   C66   S    
C7    C9    A    
C2    H43   S    
C22   H13   S    
N6    N11   A    
C2    C13   A    
C29   H16   S    
C62   C64   A    
C59   C67   A    
C58   C66   A    
C16   O1    S    
C53   H29   S    
C22   C25   D    
C35   C49   S    
C31   C33   A    
C17   O2    S    
C42   H14   S    
C4    H2    S    
C60   H36   S    
C44   C47   A    
C36   H20   S    
C48   C50   A    
C46   H26   S    
C61   H37   S    
C40   C45   A    
C30   H17   S    
N12   N16   A    
C62   N7    A    
C25   C26   S    
C27   C51   D    
C45   C47   S    
C23   C60   A    
C37   C39   A    
C46   C48   A    
N8    Ni4   S    
C51   C52   S    
C32   C35   A    
C4    C6    A    
N12   Ni3   S    
C5    C7    A    
C17   N11   A    
C7    H3    S    
C12   N9    A    
C27   H34   S    
C33   C50   S    
C34   C61   A    
C24   C34   S    
C62   F1    S    
N7    Ni3   S    
C61   N6    A    
C2    C4    A    
C41   C56   A    
N13   Ni4   S    
C44   H25   S    
C15   H8    S    
C63   F2    S    
C15   C20   A    
C31   H18   S    
C38   H22   S    
C41   H28   S    
C37   H21   S    
C9    H5    S    
C14   H7    S    
C53   C66   A    
C9    C11   A    
C45   C55   A    
N2    Ni1   S    
N16   Ni2   S    
N4    Ni2   S    
C26   H9    S    
C25   H10   S    
C30   C43   A    
C17   C34   A    
C1    C64   A    
C11   C68   A    
C44   C50   A    
C48   C56   S    
C57   H32   S    
C19   C21   A    
C11   H40   S    
C54   H30   S    
H38   O1    S    
N14   Ni4   S    
N11   Ni1   S    
C3    C5    A    
C10   C13   A    
C39   C43   A    
C54   C67   A    
C16   C23   A    
C6    C20   S    
C12   C65   A    
C58   H33   S    
C43   H15   S    
C36   C38   A    
C28   C65   S    
C18   C67   S    
C1    H1    S    
N5    N10   A    
C29   C31   A    
C52   F3    S    
C30   C32   A    
C28   C52   D    
C58   N3    A    
C18   C20   A    
N5    Ni4   S    
N1    N7    A    
C60   N5    A    
C59   H35   S    
C39   H24   S    
C27   C64   S    
C5    C21   S    
N6    Ni3   S    
N10   Ni2   S    
C8    C10   A    
C55   N16   A    
C51   F4    S    
N2    N13   A    
C22   C23   S    
N8    N9    A    
C53   N14   A    
C1    N1    A    
C16   N10   A    
C13   H41   S    
H39   O2    S    
C68   H42   S    
C57   N2    A    
