data_mof_unit_pretest_1710.cif
_audit_creation_date              2012-12-10T18:42:15-0500
_audit_creation_method            fapswitch 2.2
_symmetry_space_group_name_H-M    P1
_symmetry_Int_Tables_number       1
_space_group_crystal_system       triclinic
_cell_length_a                    13.943281
_cell_length_b                    15.079391
_cell_length_c                    17.170016
_cell_angle_alpha                 88.036856
_cell_angle_beta                  94.099265
_cell_angle_gamma                 89.467455
_cell_volume                      3598.50317466

loop_
_atom_site_label
_atom_site_type_symbol
_atom_type_description
_atom_site_fract_x
_atom_site_fract_y
_atom_site_fract_z
_atom_type_partial_charge
C1    C     C_R   0.500488 0.330383 0.499225 0.918951
C2    C     C_R   0.499938 0.669693 0.499129 0.872122
C3    C     C_R   0.531729 0.191310 0.433554 0.327277
C4    C     C_R   0.554481 0.807386 0.559647 0.420226
C5    C     C_R   0.503015 0.234083 0.499748 -0.256900
C6    C     C_R   0.501218 0.766069 0.498786 -0.311311
C7    C     C_R   0.478951 0.185218 0.566635 0.073483
C8    C     C_R   0.456519 0.816969 0.435888 0.065265
C9    C     C_R   0.474431 0.092584 0.564185 0.376570
C10   C     C_R   0.448884 0.909483 0.442781 0.488786
C11   C     C_R   0.508925 0.048815 0.500323 -0.056230
C12   C     C_R   0.507327 0.951141 0.500805 -0.101246
C13   C     C_R   0.100591 0.531185 0.434933 0.328362
C14   C     C_R   0.896081 0.424397 0.525868 0.345505
C15   C     C_R   0.202124 0.540068 0.439561 0.229385
C16   C     C_R   0.794828 0.428381 0.531468 0.214161
C17   C     C_R   0.214271 0.460639 0.561110 0.488073
C18   C     C_R   0.787397 0.570712 0.467069 0.486316
C19   C     C_R   0.113300 0.471125 0.566758 0.270278
C20   C     C_R   0.889832 0.575851 0.475825 0.280191
C21   C     C_R   0.054301 0.501247 0.501043 -0.071634
C22   C     C_R   0.945401 0.500339 0.500746 -0.077632
C23   C     C_R   0.512255 0.500681 0.651041 0.886399
C24   C     C_R   0.487905 0.497663 0.349094 0.866833
C25   C     C_R   0.519632 0.502232 0.737584 -0.256746
C26   C     C_R   0.481021 0.489427 0.263021 -0.223871
C27   C     C_R   0.438058 0.525929 0.777221 0.443420
C28   C     C_R   0.562690 0.506951 0.220858 0.415126
C29   C     C_R   0.442063 0.517922 0.858856 -0.353226
C30   C     C_R   0.553851 0.508536 0.139441 -0.345975
C31   C     C_R   0.527226 0.490946 0.902051 0.178919
C32   C     C_R   0.467329 0.485841 0.098540 0.182823
C33   C     C_R   0.609213 0.470796 0.863306 0.425515
C34   C     C_R   0.388251 0.460670 0.139960 0.414758
C35   C     C_R   0.607128 0.479391 0.781508 0.052330
C36   C     C_R   0.394147 0.462832 0.222133 0.084215
C37   C     C_R   0.537989 0.097971 0.434464 0.212430
C38   C     C_R   0.564890 0.899675 0.557074 0.168187
Cu1   Cu    Cu3+1 0.596430 0.499990 0.500000 1.018912
Cu2   Cu    Cu3+1 0.403570 0.500010 0.500000 1.007810
H1    H     H_    0.614931 0.529444 0.108178 0.205790
H2    H     H_    0.378295 0.533104 0.888442 0.202725
N1    N     N_2   0.535031 0.486398 0.984801 -0.202741
N2    N     N_2   0.456958 0.489625 0.015724 -0.205084
N3    N     N_R   0.258690 0.500020 0.500000 -0.267237
N4    N     N_R   0.741310 0.499980 0.500000 -0.268428
O1    O     O_R   0.581430 0.371450 0.499990 -0.569745
O2    O     O_R   0.418570 0.628550 0.500010 -0.596087
O3    O     O_R   0.418560 0.371460 0.499990 -0.578164
O4    O     O_R   0.581440 0.628540 0.500010 -0.491815
O5    O     O_R   0.590350 0.499180 0.613920 -0.560019
O6    O     O_R   0.409650 0.500820 0.386080 -0.553853
O7    O     O_R   0.427480 0.499190 0.613920 -0.479908
O8    O     O_R   0.572520 0.500810 0.386080 -0.524706
O9    O     O_3   0.649164 0.529998 0.259456 -0.556064
C39   C     C_3   0.723262 0.470940 0.241734 -0.331158
H3    H     H_    0.756978 0.495010 0.188412 0.170147
H4    H     H_    0.698279 0.401546 0.234609 0.145991
H5    H     H_    0.779574 0.469116 0.290798 0.163967
O10   O     O_3   0.353276 0.552214 0.734980 -0.524584
C40   C     C_3   0.319719 0.634478 0.759987 -0.374442
H6    H     H_    0.378958 0.681096 0.775814 0.149994
H7    H     H_    0.274008 0.624008 0.809785 0.170552
H8    H     H_    0.274022 0.666621 0.711271 0.179380
N5    N     N_2   0.244238 0.593236 0.381709 -0.340964
H9    H     H_    0.226687 0.572117 0.326135 0.270904
C41   C     C_3   0.223837 0.687203 0.386711 -0.657164
H10   H     H_    0.145263 0.700737 0.384818 0.257114
H11   H     H_    0.251371 0.723621 0.335929 0.218509
H12   H     H_    0.258334 0.712770 0.441634 0.234501
N6    N     N_2   0.749642 0.361554 0.576077 -0.344365
H13   H     H_    0.761864 0.368329 0.635342 0.255279
C42   C     C_3   0.759332 0.270292 0.553515 -0.618409
H14   H     H_    0.822270 0.237627 0.586314 0.238783
H15   H     H_    0.766582 0.266488 0.489935 0.205122
H16   H     H_    0.694731 0.232839 0.568234 0.207683
O11   O     O_3   0.268828 0.416588 0.620843 -0.496222
C43   C     C_3   0.247898 0.325195 0.619911 -0.248672
H17   H     H_    0.283290 0.292802 0.673376 0.177754
H18   H     H_    0.276042 0.294557 0.568059 0.155911
H19   H     H_    0.169982 0.311068 0.621410 0.185107
O12   O     O_3   0.732158 0.640310 0.432339 -0.542647
C44   C     C_3   0.764939 0.669735 0.359925 -0.156353
H20   H     H_    0.807432 0.619069 0.331059 0.167324
H21   H     H_    0.807681 0.730897 0.367781 0.173352
H22   H     H_    0.701529 0.687628 0.319638 0.176955
O13   O     O_3   0.071816 0.446356 0.634918 -0.520372
C45   C     C_3   0.088085 0.513279 0.689415 -0.270002
H23   H     H_    0.064680 0.579824 0.664647 0.121266
H24   H     H_    0.164833 0.514235 0.711407 0.227725
H25   H     H_    0.045155 0.498416 0.740119 0.178718
O14   O     O_3   0.935706 0.654381 0.458864 -0.530825
C46   C     C_3   0.930153 0.710350 0.522527 -0.329277
H26   H     H_    0.963710 0.678638 0.577416 0.147184
H27   H     H_    0.854519 0.730180 0.530443 0.185321
H28   H     H_    0.970522 0.771725 0.510367 0.176032
O15   O     O_3   0.694407 0.447830 0.905850 -0.562108
C47   C     C_3   0.693169 0.356223 0.925570 -0.332869
H29   H     H_    0.764368 0.336517 0.954200 0.190006
H30   H     H_    0.680650 0.315551 0.872941 0.139676
H31   H     H_    0.638269 0.340835 0.967777 0.177829
O16   O     O_3   0.302301 0.438418 0.100325 -0.573447
C48   C     C_3   0.309969 0.351455 0.073206 -0.298540
H32   H     H_    0.236571 0.327336 0.056995 0.182960
H33   H     H_    0.343643 0.304014 0.118477 0.143128
H34   H     H_    0.350658 0.350738 0.019957 0.184629
N7    N     N_2   0.693111 0.463321 0.743980 -0.401223
H35   H     H_    0.732644 0.409324 0.767081 0.264037
C49   C     C_3   0.752229 0.540830 0.734711 -0.590747
H36   H     H_    0.814270 0.523850 0.700675 0.203039
H37   H     H_    0.779876 0.564015 0.792738 0.230753
H38   H     H_    0.710436 0.595257 0.702491 0.251342
N8    N     N_2   0.312351 0.438208 0.263000 -0.407006
H39   H     H_    0.247012 0.452730 0.233089 0.273285
C50   C     C_3   0.315893 0.349244 0.297586 -0.601349
H40   H     H_    0.310891 0.299447 0.251447 0.211988
H41   H     H_    0.254496 0.340177 0.334752 0.193220
H42   H     H_    0.383330 0.337744 0.334924 0.262282
N9    N     N_2   0.565651 0.053982 0.366843 -0.364598
H43   H     H_    0.555077 0.090197 0.314872 0.291422
C51   C     C_3   0.657532 0.007659 0.374784 -0.735341
H44   H     H_    0.675085 0.983442 0.317060 0.221604
H45   H     H_    0.655047 0.948905 0.414958 0.242415
H46   H     H_    0.715593 0.052264 0.396539 0.208145
N10   N     N_2   0.633683 0.938656 0.611009 -0.371742
H47   H     H_    0.620619 0.003078 0.625208 0.275119
C52   C     C_3   0.733009 0.925083 0.594540 -0.678157
H48   H     H_    0.780837 0.950201 0.643194 0.217807
H49   H     H_    0.748354 0.961982 0.539840 0.201872
H50   H     H_    0.749565 0.853542 0.588907 0.261669
O17   O     O_3   0.540473 0.240201 0.364609 -0.600563
C53   C     C_3   0.638163 0.256408 0.353628 -0.355044
H51   H     H_    0.688190 0.203266 0.378507 0.147343
H52   H     H_    0.659387 0.320998 0.378169 0.208038
H53   H     H_    0.646874 0.261101 0.289964 0.175861
O18   O     O_3   0.602902 0.756811 0.619013 -0.557529
C54   C     C_3   0.541653 0.745736 0.680369 -0.320153
H54   H     H_    0.522097 0.810673 0.704242 0.186209
H55   H     H_    0.580016 0.705679 0.728472 0.179256
H56   H     H_    0.475686 0.709164 0.661104 0.149469
N11   N     N_2   0.457784 0.229036 0.635906 -0.406447
H57   H     H_    0.411483 0.195080 0.669972 0.279114
C55   C     C_3   0.541061 0.258806 0.682586 -0.675984
H58   H     H_    0.517465 0.291504 0.735082 0.215630
H59   H     H_    0.581787 0.307978 0.649242 0.244735
H60   H     H_    0.588733 0.201525 0.701826 0.224201
N12   N     N_2   0.426834 0.777342 0.363768 -0.423214
H61   H     H_    0.419332 0.709503 0.366370 0.268806
C56   C     C_3   0.480568 0.804869 0.298166 -0.636927
H62   H     H_    0.557791 0.786972 0.310201 0.215436
H63   H     H_    0.473344 0.877438 0.286028 0.275001
H64   H     H_    0.452385 0.770787 0.245092 0.211638
O19   O     O_3   0.443581 0.044191 0.627489 -0.577806
C57   C     C_3   0.344243 0.028912 0.614015 -0.352655
H65   H     H_    0.318229 0.995447 0.666905 0.185914
H66   H     H_    0.329800 0.984227 0.564587 0.165309
H67   H     H_    0.302450 0.091969 0.603139 0.146803
O20   O     O_3   0.392113 0.961740 0.389156 -0.554740
C58   C     C_3   0.294909 0.936016 0.388674 -0.307605
H68   H     H_    0.248903 0.994920 0.371723 0.173771
H69   H     H_    0.273695 0.910764 0.446688 0.120307
H70   H     H_    0.279411 0.885679 0.344042 0.200459
O21   O     O_3   0.047389 0.559462 0.367397 -0.524677
C59   C     C_3   0.026681 0.485146 0.321777 -0.365026
H71   H     H_    0.976565 0.439639 0.350380 0.144181
H72   H     H_    0.093302 0.448734 0.309038 0.148531
H73   H     H_    0.990415 0.508582 0.265105 0.193947
O22   O     O_3   0.946329 0.347928 0.551225 -0.513488
C60   C     C_3   0.974852 0.302448 0.485889 -0.352503
H74   H     H_    0.041458 0.331026 0.464355 0.150182
H75   H     H_    0.917528 0.301499 0.437232 0.126810
H76   H     H_    0.991444 0.232498 0.504498 0.178672

loop_
_geom_bond_atom_site_label_1
_geom_bond_atom_site_label_2
_ccdc_geom_bond_type
C24   O6    A    
C55   H60   S    
Cu1   O5    S    
O13   C45   S    
C46   H26   S    
C29   H2    S    
C27   C29   A    
C42   H15   S    
C42   H14   S    
C45   H24   S    
N12   H61   S    
O9    C39   S    
O15   C47   S    
C59   H72   S    
O11   C43   S    
C54   H55   S    
C34   O16   S    
C31   N1    S    
C3    O17   S    
C59   H71   S    
N12   C56   S    
C24   C26   S    
C19   O13   S    
C27   O10   S    
C56   H63   S    
C33   C35   A    
C47   H29   S    
C43   H18   S    
Cu1   O8    S    
C24   O8    A    
C55   H58   S    
C15   N5    S    
C39   H3    S    
C18   C20   A    
Cu2   O2    S    
C60   H74   S    
C40   H7    S    
C51   H46   S    
C2    O4    A    
C49   H37   S    
C18   O12   S    
N11   H57   S    
C44   H20   S    
C53   H51   S    
N5    C41   S    
N7    H35   S    
C31   C33   A    
C30   H1    S    
C13   O21   S    
C11   C37   A    
C10   O20   S    
C57   H66   S    
C40   H6    S    
C1    C5    S    
C4    O18   S    
C9    O19   S    
C46   H27   S    
C21   C22   S    
N7    C49   S    
C2    C6    S    
C16   N6    S    
C36   N8    S    
C18   N4    A    
C28   O9    S    
C23   O7    A    
C5    C7    A    
N9    C51   S    
Cu2   N3    S    
C54   H56   S    
C51   H44   S    
C41   H10   S    
C57   H67   S    
C4    C6    A    
C56   H64   S    
C16   N4    A    
Cu1   Cu2   S    
N6    C42   S    
C43   H17   S    
C1    O1    A    
C6    C8    A    
C2    O2    A    
Cu2   O6    S    
O10   C40   S    
C41   H11   S    
C32   C34   A    
C40   H8    S    
N1    N2    D    
C52   H49   S    
C42   H16   S    
C20   O14   S    
C23   O5    A    
C58   H68   S    
C37   N9    S    
C45   H25   S    
C11   C12   S    
C50   H42   S    
Cu1   O4    S    
C17   O11   S    
C32   N2    S    
C58   H70   S    
C13   C21   A    
C48   H33   S    
C9    C11   A    
C57   H65   S    
C10   C12   A    
C25   C35   A    
Cu1   N4    S    
C26   C36   A    
O22   C60   S    
C44   H21   S    
C20   C22   A    
N5    H9    S    
C46   H28   S    
C47   H30   S    
C13   C15   A    
O20   C58   S    
C60   H76   S    
C14   C16   A    
C49   H38   S    
C8    N12   S    
C15   N3    A    
C14   O22   S    
C52   H48   S    
C7    N11   S    
C38   N10   S    
Cu1   O1    S    
N8    H39   S    
C60   H75   S    
C55   H59   S    
C50   H41   S    
C19   C21   A    
C59   H73   S    
C17   N3    A    
O18   C54   S    
C3    C5    A    
O17   C53   S    
N9    H43   S    
Cu2   O7    S    
C25   C27   A    
C47   H31   S    
C54   H54   S    
C26   C28   A    
C39   H5    S    
C41   H12   S    
C14   C22   A    
N11   C55   S    
C58   H69   S    
C52   H50   S    
N6    H13   S    
C29   C31   A    
C56   H62   S    
C30   C32   A    
C43   H19   S    
C50   H40   S    
N10   H47   S    
C53   H53   S    
C53   H52   S    
C28   C30   A    
O14   C46   S    
C17   C19   A    
C39   H4    S    
C48   H34   S    
C34   C36   A    
C23   C25   S    
C12   C38   A    
O16   C48   S    
C51   H45   S    
O21   C59   S    
C35   N7    S    
C7    C9    A    
C44   H22   S    
C45   H23   S    
C3    C37   A    
C8    C10   A    
O12   C44   S    
C49   H36   S    
C48   H32   S    
N10   C52   S    
C33   O15   S    
O19   C57   S    
C4    C38   A    
C1    O3    A    
Cu2   O3    S    
N8    C50   S    
