data_mof_unit_pretest_1274.cif
_audit_creation_date              2012-12-11T14:36:00-0500
_audit_creation_method            fapswitch 2.2
_symmetry_space_group_name_H-M    P1
_symmetry_Int_Tables_number       1
_space_group_crystal_system       triclinic
_cell_length_a                    13.490618
_cell_length_b                    13.485284
_cell_length_c                    27.515495
_cell_angle_alpha                 90.432997
_cell_angle_beta                  89.979577
_cell_angle_gamma                 59.966387
_cell_volume                      4333.46547218

loop_
_atom_site_label
_atom_site_type_symbol
_atom_type_description
_atom_site_fract_x
_atom_site_fract_y
_atom_site_fract_z
_atom_type_partial_charge
C1    C     C_R   0.620408 0.101420 0.570095 0.565416
C2    C     C_1   0.630382 0.733342 0.616659 0.012593
C3    C     C_3   0.641242 0.591570 0.769775 -0.090961
C4    C     C_3   0.679431 0.654070 0.805490 0.052908
C5    C     C_3   0.562444 0.707111 0.744709 -0.103148
C6    C     C_3   0.662393 0.685346 0.711029 0.055244
C7    C     C_3   0.600746 0.769189 0.781183 -0.104064
C8    C     C_3   0.700506 0.748005 0.746715 -0.088206
C9    C     C_1   0.688467 0.633056 0.857805 -0.035689
C10   C     C_1   0.648429 0.706800 0.658760 -0.029641
C11   C     C_3   0.073863 0.164932 0.736608 -0.102926
C12   C     C_R   0.599492 0.779749 0.568843 0.560386
C13   C     C_3   0.152078 0.075037 0.774435 -0.101544
C14   C     C_1   0.094586 0.203173 0.901484 0.005938
C15   C     C_1   0.231177 0.137570 0.617855 0.019187
C16   C     C_3   0.065147 0.262382 0.769781 -0.097662
C17   C     C_3   0.143861 0.172290 0.806767 0.053094
C18   C     C_3   0.171953 0.253711 0.744765 -0.100595
C19   C     C_3   0.180270 0.156443 0.712394 0.057977
C20   C     C_3   0.250128 0.164059 0.782521 -0.099741
C21   C     C_3   0.259070 0.066417 0.749381 -0.086388
C22   C     C_1   0.121112 0.185114 0.859166 -0.031562
C23   C     C_R   0.278120 0.121651 0.569797 0.556670
C24   C     C_1   0.203721 0.147268 0.660062 -0.016024
C25   C     C_3   0.605862 0.279040 0.740911 -0.154075
C26   C     C_3   0.551227 0.236280 0.779444 -0.137277
C27   C     C_1   0.690210 0.207024 0.903515 0.023866
C28   C     C_1   0.636156 0.133173 0.618085 0.052751
C29   C     C_3   0.717535 0.225753 0.771004 0.030652
C30   C     C_3   0.663367 0.183462 0.808845 0.033624
C31   C     C_3   0.763818 0.112021 0.742866 0.015161
C32   C     C_3   0.653045 0.164271 0.712985 0.066389
C33   C     C_3   0.710719 0.068464 0.781146 -0.158597
C34   C     C_R   0.621738 0.099764 0.430775 0.575484
C35   C     C_3   0.599290 0.121886 0.751003 0.035254
C36   C     C_1   0.673546 0.194943 0.861413 -0.000380
C37   C     C_1   0.645322 0.151087 0.660353 0.056478
C38   C     C_R   0.744981 0.685750 0.360757 0.002329
C39   C     C_R   0.755917 0.668688 0.309859 0.018853
C40   C     C_R   0.768402 0.652106 0.207727 0.012837
C41   C     C_R   0.861739 0.640433 0.234361 -0.140101
C42   C     C_R   0.855476 0.649416 0.284820 -0.113541
C43   C     C_R   0.776844 0.635413 0.157483 -0.125343
C44   C     C_R   0.685629 0.638445 0.131779 0.003698
C45   C     C_R   0.602646 0.775182 0.430420 0.539664
C46   C     C_R   0.553472 0.710293 0.356262 -0.102171
C47   C     C_R   0.562836 0.691746 0.306482 0.015517
C48   C     C_R   0.662202 0.677590 0.282838 0.026570
C49   C     C_R   0.470861 0.697378 0.279188 0.010968
C50   C     C_R   0.475105 0.699835 0.228703 -0.150608
C51   C     C_R   0.572779 0.686026 0.205134 -0.001422
C52   C     C_R   0.667590 0.672657 0.231951 0.061732
C53   C     C_R   0.580678 0.674396 0.154999 -0.124794
C54   C     C_R   0.638555 0.716707 0.382944 -0.025870
C55   C     C_R   0.201922 0.065727 0.359286 -0.132778
C56   C     C_R   0.278668 0.120929 0.430760 0.543715
C57   C     C_R   0.176960 0.077323 0.309539 -0.013612
C58   C     C_R   0.138619 0.095237 0.208441 -0.019584
C59   C     C_R   0.136014 0.006149 0.234819 0.010360
C60   C     C_R   0.154932 0.999083 0.285232 -0.105328
C61   C     C_R   0.110813 0.113778 0.158902 -0.141092
C62   C     C_R   0.107961 0.206537 0.134682 0.000489
C63   C     C_R   0.214777 0.239039 0.357556 -0.102317
C64   C     C_R   0.196517 0.247941 0.307957 0.013941
C65   C     C_R   0.178440 0.166210 0.283512 0.059101
C66   C     C_R   0.200661 0.335058 0.282350 -0.113940
C67   C     C_3   0.741047 0.570154 0.735333 -0.103561
C68   C     C_R   0.186413 0.341797 0.232363 -0.123580
C69   C     C_R   0.165800 0.262784 0.207725 0.011827
C70   C     C_R   0.161880 0.173909 0.233139 0.054553
C71   C     C_R   0.142339 0.275993 0.158468 -0.127115
C72   C     C_R   0.224425 0.144625 0.382984 0.005033
C73   C     C_R   0.563647 0.241006 0.361293 -0.010013
C74   C     C_R   0.560821 0.254493 0.309988 -0.042645
C75   C     C_R   0.566933 0.281210 0.208207 -0.023068
C76   C     C_R   0.482059 0.371581 0.236900 0.023389
C77   C     C_R   0.482709 0.358054 0.287459 -0.097580
C78   C     C_3   0.779490 0.632254 0.771883 -0.103304
C79   C     C_R   0.587422 0.297209 0.159746 -0.165729
C80   C     C_R   0.670016 0.206141 0.131782 0.016939
C81   C     C_R   0.713998 0.041460 0.351086 -0.143380
C82   C     C_R   0.712017 0.054258 0.301184 0.008745
C83   C     C_R   0.636513 0.160707 0.280221 0.051341
C84   C     C_R   0.782130 0.959573 0.271959 -0.094080
C85   C     C_R   0.781381 0.970224 0.221930 -0.103624
C86   C     C_R   0.714024 0.077648 0.199986 -0.011713
C87   C     C_R   0.638830 0.173260 0.229444 0.044285
C88   C     C_R   0.721971 0.093074 0.149783 0.009061
C89   C     C_1   0.697355 0.607461 0.900034 0.006447
C90   C     C_R   0.638157 0.131652 0.381414 0.018347
C91   C     C_R   0.048759 0.236603 0.949652 0.551848
C92   C     C_R   0.711597 0.562901 0.948154 0.556261
C93   C     C_R   0.721789 0.225294 0.951101 0.567815
C94   C     C_R   0.048436 0.244578 0.088314 0.545394
C95   C     C_R   0.707441 0.576063 0.085921 0.548869
C96   C     C_R   0.716622 0.232257 0.088306 0.578624
Cr1   Cr    Cr6+3 0.417550 0.169090 0.500530 1.079119
Cr2   Cr    Cr6+3 0.669180 0.913420 0.499920 1.051364
Cr3   Cr    Cr6+3 0.413260 0.917540 0.499520 1.058907
Cr4   Cr    Cr6+3 0.909170 0.177380 0.020380 1.054315
Cr5   Cr    Cr6+3 0.912710 0.429210 0.018220 1.035610
Cr6   Cr    Cr6+3 0.657170 0.432570 0.019030 1.032731
H1    H     H_    0.868806 0.601410 0.783759 0.109665
H2    H     H_    0.320826 0.165309 0.802562 0.095367
H3    H     H_    0.180168 0.327163 0.731977 0.116796
H4    H     H_    0.463289 0.286368 0.794676 0.108827
H5    H     H_    0.752927 0.981940 0.797580 0.100612
H6    H     H_    0.857666 0.609623 0.139349 0.129624
H7    H     H_    0.928777 0.642728 0.303783 0.160873
H8    H     H_    0.404313 0.706028 0.207564 0.115751
H9    H     H_    0.473238 0.733058 0.373712 0.199770
H10   H     H_    0.082565 0.062425 0.139647 0.118218
H11   H     H_    0.208781 0.993130 0.378900 0.133247
H12   H     H_    0.725198 0.812266 0.736557 0.133966
H13   H     H_    0.153239 0.931729 0.305789 0.152982
H14   H     H_    0.141307 0.346933 0.139677 0.129630
H15   H     H_    0.189013 0.410286 0.213101 0.138033
H16   H     H_    0.215829 0.397381 0.300929 0.140967
H17   H     H_    0.230697 0.301623 0.375465 0.146794
H18   H     H_    0.547739 0.382252 0.144735 0.118484
H19   H     H_    0.542943 0.849766 0.801043 0.095757
H20   H     H_    0.837381 0.893790 0.201400 0.119162
H21   H     H_    0.838037 0.876644 0.287883 0.126702
H22   H     H_    0.770323 0.957288 0.365954 0.127713
H23   H     H_    0.473075 0.737929 0.732907 0.111324
H24   H     H_    0.002229 0.165800 0.716536 0.126931
H25   H     H_    0.339049 0.985542 0.740365 0.129381
O1    O     O_R   0.301710 0.195650 0.554160 -0.497798
O2    O     O_R   0.658900 0.818120 0.449760 -0.521128
O3    O     O_R   0.503220 0.801620 0.445520 -0.509368
O4    O     O_R   0.319370 0.022040 0.450020 -0.501741
O5    O     O_3   0.499990 0.000010 0.499990 -0.265112
O6    O     O_R   0.818720 0.150820 0.967160 -0.490293
O7    O     O_R   0.006410 0.181720 0.970200 -0.492661
O8    O     O_R   0.027890 0.334070 0.964920 -0.506968
O9    O     O_R   0.809600 0.521790 0.967960 -0.491301
O10   O     O_R   0.635520 0.542770 0.964420 -0.505128
O11   O     O_R   0.665950 0.325030 0.970100 -0.494077
O12   O     O_R   0.522390 0.158990 0.550460 -0.486006
O13   O     O_R   0.816620 0.158530 0.074540 -0.488565
O14   O     O_R   0.004460 0.188870 0.069750 -0.508650
O15   O     O_R   0.025800 0.341780 0.072300 -0.520673
O16   O     O_R   0.807650 0.528950 0.067500 -0.500862
O17   O     O_R   0.633420 0.550490 0.071810 -0.524503
O18   O     O_R   0.664000 0.332180 0.069640 -0.511261
O19   O     O_3   0.826350 0.346390 0.019210 -0.250925
O20   O     O_R   0.694390 0.003530 0.554040 -0.488017
O21   O     O_R   0.657700 0.819660 0.549320 -0.486652
O22   O     O_R   0.501930 0.803280 0.552920 -0.496907
O23   O     O_R   0.318170 0.023580 0.549580 -0.490474
O24   O     O_R   0.303010 0.193990 0.446760 -0.519287
O25   O     O_R   0.523600 0.157450 0.450900 -0.473628
O26   O     O_R   0.695690 0.001860 0.446640 -0.532604
H26   H     H_    0.985372 0.343432 0.778813 0.132056
H27   H     H_    0.563900 0.365464 0.724409 0.107999
C97   C     C_2   0.533288 0.061759 0.741502 0.202778
H28   H     H_    0.505624 0.030968 0.771869 0.077394
O27   O     O_2   0.511262 0.046231 0.700108 -0.518629
C98   C     C_2   0.884029 0.041416 0.724388 0.199427
H29   H     H_    0.954639 0.008387 0.749816 0.100454
O28   O     O_2   0.903251 0.020674 0.681074 -0.500533
C99   C     C_2   0.784553 0.285069 0.780258 0.192599
H30   H     H_    0.814218 0.313589 0.749734 0.082397
O29   O     O_2   0.805616 0.301985 0.821603 -0.516534
H31   H     H_    0.798746 0.489084 0.715721 0.100577
C100  C     C_2   0.843041 0.672575 0.390040 0.222169
H32   H     H_    0.839822 0.745565 0.408337 0.132160
O30   O     O_2   0.929569 0.578965 0.393163 -0.496402
H33   H     H_    0.939838 0.624122 0.216168 0.124510
H34   H     H_    0.509130 0.679469 0.134886 0.128977
C101  C     C_2   0.369711 0.698194 0.300939 0.231192
H35   H     H_    0.288988 0.738973 0.281712 0.174956
O31   O     O_2   0.376895 0.646668 0.338259 -0.506128
C102  C     C_2   0.115633 0.918502 0.211020 0.196842
H36   H     H_    0.131021 0.899809 0.172528 0.097228
O32   O     O_2   0.082404 0.864267 0.234598 -0.514906
C103  C     C_2   0.490871 0.339979 0.393762 0.269456
H37   H     H_    0.402046 0.398910 0.385064 0.108949
O33   O     O_2   0.530478 0.356565 0.430809 -0.466462
C104  C     C_2   0.387633 0.477793 0.214907 0.197104
H38   H     H_    0.384210 0.493563 0.176296 0.098686
O34   O     O_2   0.308059 0.548206 0.239767 -0.518294
H39   H     H_    0.420351 0.429537 0.308860 0.182350
C105  C     C_2   0.785483 0.993264 0.116275 0.244096
H40   H     H_    0.865630 0.919282 0.126766 0.096743
O35   O     O_2   0.747724 0.993487 0.075917 -0.493458
H41   H     H_    0.615760 0.527924 0.779920 0.129879
H42   H     H_    0.143898 0.001612 0.787275 0.109080

loop_
_geom_bond_atom_site_label_1
_geom_bond_atom_site_label_2
_ccdc_geom_bond_type
C96   O13   A    
C66   C68   A    
C101  H35   S    
C8    C78   S    
C45   O2    A    
C25   H27   S    
C11   C13   S    
C41   C42   A    
C83   C87   A    
C33   H5    S    
C74   C83   A    
C43   C44   A    
C59   C102  S    
C2    C12   S    
C26   H4    S    
C81   C82   A    
C7    C8    S    
C47   C49   A    
C85   C86   A    
C104  H38   S    
C84   H21   S    
C95   O16   A    
C96   O18   A    
Cr3   O22   S    
C11   C19   S    
C20   C21   S    
Cr3   O5    S    
C49   C50   A    
C97   H28   S    
C19   C21   S    
C42   H7    S    
C73   C90   A    
C93   O6    A    
Cr4   O14   S    
C4    C7    S    
Cr6   O18   S    
Cr6   O11   S    
C5    C6    S    
C86   C88   A    
C88   C105  S    
Cr2   O20   S    
C65   C70   A    
C50   H8    S    
C17   C20   S    
C105  H40   S    
C18   C19   S    
C73   C74   A    
C69   C71   A    
C102  H36   S    
C93   O11   A    
Cr4   O13   S    
C33   C35   S    
C44   C53   A    
C40   C43   A    
C47   C48   A    
Cr4   O19   S    
C16   C17   S    
C56   C72   S    
C74   C77   A    
C30   C36   S    
C71   H14   S    
C1    C28   S    
C35   C97   S    
C31   C33   S    
C80   C96   S    
C55   C72   A    
C1    O12   A    
C8    H12   S    
C73   C103  S    
C67   H31   S    
C25   C32   S    
C15   C23   S    
Cr2   O26   S    
C59   C60   A    
C30   C33   S    
C13   H42   S    
C46   H9    S    
C100  O30   D    
C92   O9    A    
C67   C78   S    
Cr6   O17   S    
C7    H19   S    
Cr1   O1    S    
C92   O10   A    
C29   C99   S    
Cr4   O7    S    
C39   C42   A    
C99   O29   D    
Cr5   O8    S    
C25   C29   S    
Cr3   O23   S    
C3    C67   S    
Cr5   O19   S    
C81   H22   S    
C51   C52   A    
C94   O15   A    
C32   C35   S    
C103  O33   D    
C11   H24   S    
C76   C77   A    
C9    C89   T    
C5    C7    S    
C34   O25   A    
C86   C87   A    
C68   C69   A    
C57   C60   A    
C6    C8    S    
C55   H11   S    
C76   C104  S    
C58   C59   A    
C40   C52   A    
C11   C16   S    
C41   H33   S    
C63   C64   A    
C89   C92   S    
Cr6   O10   S    
C64   C66   A    
C75   C76   A    
C34   C90   S    
C4    C78   S    
C29   C30   S    
C68   H15   S    
C63   H17   S    
Cr5   O15   S    
C98   H29   S    
C38   C54   A    
C48   C52   A    
C79   H18   S    
C46   C54   A    
C98   O28   D    
C50   C51   A    
Cr1   O24   S    
C13   C21   S    
C85   H20   S    
C16   C18   S    
C32   C37   S    
C84   C85   A    
C56   O24   A    
C53   H34   S    
C81   C90   A    
C75   C87   A    
C15   C24   T    
C23   O23   A    
C45   C54   S    
C103  H37   S    
C82   C84   A    
C55   C57   A    
C16   H26   S    
C100  H32   S    
C95   O17   A    
C27   C93   S    
C21   H25   S    
C5    H23   S    
C3    C4    S    
C2    C10   T    
Cr4   O6    S    
C49   C101  S    
C99   H30   S    
Cr5   O9    S    
C38   C100  S    
C46   C47   A    
C40   C41   A    
C104  O34   D    
Cr3   O3    S    
C78   H1    S    
C94   O14   A    
C12   O22   A    
C31   C32   S    
C58   C70   A    
Cr1   O5    S    
C57   C65   A    
C3    C5    S    
C3    H41   S    
C6    C10   S    
C61   C62   A    
C26   C30   S    
C20   H2    S    
Cr3   O4    S    
C27   C36   T    
C101  O31   D    
C17   C22   S    
C13   C17   S    
C64   C65   A    
C14   C22   T    
C62   C94   S    
C19   C24   S    
C25   C26   S    
C18   H3    S    
C80   C88   A    
C44   C95   S    
C6    C67   S    
Cr6   O19   S    
Cr5   O16   S    
C12   O21   A    
C38   C39   A    
C91   O7    A    
Cr2   O21   S    
C28   C37   T    
C58   C61   A    
Cr2   O2    S    
C97   O27   D    
C77   H39   S    
Cr1   O25   S    
C105  O35   D    
C62   C71   A    
C18   C20   S    
C43   H6    S    
C69   C70   A    
C102  O32   D    
C14   C91   S    
C34   O26   A    
C56   O4    A    
C1    O20   A    
C79   C80   A    
C26   C35   S    
C45   O3    A    
C91   O8    A    
C63   C72   A    
C29   C31   S    
C82   C83   A    
C66   H16   S    
Cr2   O5    S    
C39   C48   A    
C60   H13   S    
C51   C53   A    
C4    C9    S    
C61   H10   S    
C75   C79   A    
Cr1   O12   S    
C31   C98   S    
C23   O1    A    
