data_mof_unit_pretest_1010.cif
_audit_creation_date              2013-03-05T16:04:21-0500
_audit_creation_method            fapswitch 2.2
_symmetry_space_group_name_H-M    P1
_symmetry_Int_Tables_number       1
_space_group_crystal_system       triclinic
_cell_length_a                    9.516992
_cell_length_b                    10.832594
_cell_length_c                    13.431226
_cell_angle_alpha                 90.159562
_cell_angle_beta                  72.254311
_cell_angle_gamma                 90.031125
_cell_volume                      1318.7851581

loop_
_atom_site_label
_atom_site_type_symbol
_atom_site_description
_atom_site_fract_x
_atom_site_fract_y
_atom_site_fract_z
_atom_type_partial_charge
O1    O     O_R   0.381250 0.680340 0.500010 -0.593140
O2    O     O_R   0.618820 0.680370 0.500010 -0.589552
C1    C     C_R   0.500035 0.737940 0.500057 0.789643
O3    O     O_R   0.323240 0.499950 0.650980 -0.566499
O4    O     O_R   0.560810 0.499980 0.650980 -0.592231
C2    C     C_R   0.420946 0.496405 0.700360 0.782219
Cu1   Cu    Cu3+1 0.359340 0.499980 0.500000 0.963573
Cu2   Cu    Cu3+1 0.640660 0.500020 0.500000 0.976337
O5    O     O_R   0.381180 0.319630 0.499990 -0.591418
O6    O     O_R   0.618750 0.319660 0.499990 -0.584619
O7    O     O_R   0.439190 0.500020 0.349020 -0.585943
O8    O     O_R   0.676760 0.500050 0.349020 -0.541718
C3    C     C_R   0.500005 0.262071 0.499882 0.813427
C4    C     C_R   0.579026 0.493828 0.299874 0.870045
C5    C     C_R   0.776488 0.364783 0.030410 0.249474
H1    H     H_    0.777350 0.287024 0.839103 0.193755
C6    C     C_R   0.623956 0.469501 0.186727 -0.224641
C7    C     C_R   0.239746 0.557282 0.867872 -0.124409
C8    C     C_R   0.202015 0.579240 0.974593 -0.070537
C9    C     C_R   0.299818 0.549165 0.029519 -0.134508
C10   C     C_R   0.436726 0.491162 0.978944 0.108385
C11   C     C_R   0.466507 0.456415 0.872667 0.086312
C12   C     C_R   0.543715 0.464419 0.030660 0.049812
C13   C     C_R   0.671323 0.393917 0.978859 -0.017181
C14   C     C_R   0.687539 0.348035 0.878493 -0.151486
C15   C     C_R   0.586912 0.378057 0.826733 -0.197543
C16   C     C_R   0.527101 0.505771 0.132559 -0.287220
C17   C     C_R   0.749819 0.399013 0.135629 0.255951
C18   C     C_R   0.373162 0.498802 0.815394 -0.096422
H2    H     H_    0.437202 0.565293 0.173207 0.171157
H3    H     H_    0.165859 0.588895 0.825839 0.155683
H4    H     H_    0.262893 0.569809 0.111913 0.145411
H5    H     H_    0.097918 0.623292 0.014616 0.154800
H6    H     H_    0.602860 0.335725 0.751107 0.165185
C19   C     C_R   0.628096 0.936255 0.499183 -0.172972
H7    H     H_    0.728165 0.888284 0.498655 0.151586
C20   C     C_R   0.628124 0.063971 0.499024 -0.139758
H8    H     H_    0.728234 0.112083 0.498341 0.156024
C21   C     C_R   0.500092 0.128245 0.499757 -0.013420
C22   C     C_R   0.372113 0.063804 0.500483 -0.165592
H9    H     H_    0.272042 0.111776 0.501011 0.154245
C23   C     C_R   0.372089 0.936096 0.500629 -0.173818
H10   H     H_    0.271983 0.888007 0.501280 0.151511
C24   C     C_R   0.500073 0.871803 0.499988 -0.023695
C25   C     C_R   0.899161 0.580594 0.561639 -0.017171
H11   H     H_    0.821915 0.645123 0.611053 0.125898
C26   C     C_R   0.047947 0.580349 0.561814 -0.012379
H12   H     H_    0.082839 0.644620 0.611386 0.117689
N1    N     N_R   0.147940 0.499970 0.499970 -0.164829
C27   C     C_R   0.100780 0.419251 0.438588 -0.010085
H13   H     H_    0.177903 0.354469 0.389384 0.140349
C28   C     C_R   0.951888 0.419011 0.438979 0.006427
H14   H     H_    0.916865 0.353527 0.390767 0.191665
N2    N     N_R   0.852060 0.500060 0.499990 -0.172715
N3    N     N_R   0.845678 0.354952 0.191669 0.147696
O9    O     O_R   0.982539 0.390872 0.165060 -0.354355
O10   O     O_R   0.803034 0.263832 0.256800 -0.372563
N4    N     N_R   0.907061 0.295664 0.977953 0.136977
O11   O     O_R   0.935525 0.192258 0.016961 -0.290779
O12   O     O_R   0.001154 0.338834 0.893408 -0.378037

loop_
_geom_bond_atom_site_label_1
_geom_bond_atom_site_label_2
_geom_bond_distance
_ccdc_geom_bond_type
O4    Cu2   1.936562 S    
C27   C28   1.415407 A    
N3    O9    1.300813 A    
O6    C3    1.290935 A    
C13   C14   1.399129 A    
C22   H9    1.083295 S    
C20   H8    1.083324 S    
C11   C18   1.418015 A    
C12   C16   1.401267 A    
C8    C9    1.391755 A    
Cu2   O8    1.950771 S    
C22   C23   1.383413 A    
C27   H13   1.081769 S    
C14   C15   1.383347 A    
Cu1   Cu2   2.677321 S    
C26   N1    1.367010 A    
C7    C18   1.401115 A    
O1    Cu1   1.964754 S    
C10   C11   1.417763 A    
C9    C10   1.418767 A    
C16   H2    1.076887 S    
Cu1   O7    1.936563 S    
C19   C24   1.401123 A    
C4    C6    1.470898 S    
C5    C17   1.406279 A    
C23   C24   1.401149 A    
O3    Cu1   1.950770 S    
O3    C2    1.296977 A    
C5    C13   1.415885 A    
C19   C20   1.383503 A    
C17   N3    1.430982 S    
C28   N2    1.366486 A    
C25   N2    1.367273 A    
O2    C1    1.291209 A    
N3    O10   1.300851 A    
C10   C12   1.426789 A    
C8    H5    1.082867 S    
O4    C2    1.294255 A    
C5    N4    1.437219 S    
C1    C24   1.450086 S    
C3    C21   1.449684 S    
C23   H10   1.083289 S    
C12   C13   1.423095 A    
N4    O12   1.301027 A    
C6    C16   1.394322 A    
C21   C22   1.400968 A    
C2    C18   1.471771 S    
C28   H14   1.078125 S    
Cu1   N1    2.012015 S    
C20   C21   1.401117 A    
N1    C27   1.366319 A    
C9    H4    1.076949 S    
C25   C26   1.416719 A    
Cu2   N2    2.011851 S    
H1    C14   1.081794 S    
Cu1   O5    1.964791 S    
O5    C3    1.291265 A    
C7    C8    1.387292 A    
C11   C15   1.407616 A    
C7    H3    1.083426 S    
N4    O11   1.301049 A    
C25   H11   1.081712 S    
C6    C17   1.409188 A    
O7    C4    1.294472 A    
C15   H6    1.081005 S    
Cu2   O6    1.964754 S    
O2    Cu2   1.964793 S    
C26   H12   1.081781 S    
O8    C4    1.295905 A    
O1    C1    1.291107 A    
C19   H7    1.083279 S    
