data_mof_unit_pretest_362.cif
_audit_creation_date              2012-12-10T20:43:45-0500
_audit_creation_method            fapswitch 2.2
_symmetry_space_group_name_H-M    P1
_symmetry_Int_Tables_number       1
_space_group_crystal_system       triclinic
_cell_length_a                    10.835651
_cell_length_b                    19.253385
_cell_length_c                    19.156883
_cell_angle_alpha                 95.327529
_cell_angle_beta                  92.089458
_cell_angle_gamma                 95.784484
_cell_volume                      3954.80187311

loop_
_atom_site_label
_atom_site_type_symbol
_atom_type_description
_atom_site_fract_x
_atom_site_fract_y
_atom_site_fract_z
_atom_type_partial_charge
C1    C     C_R   0.511023 0.690392 0.507928 0.526952
C2    C     C_R   0.516878 0.768084 0.512327 -0.031037
C3    C     C_R   0.618231 0.803960 0.482241 -0.184049
C4    C     C_R   0.486233 0.309865 0.492153 0.625663
C5    C     C_R   0.630843 0.876519 0.483639 -0.158242
C6    C     C_R   0.487825 0.513191 0.765353 -0.022112
C7    C     C_R   0.459027 0.454639 0.802800 0.172260
C8    C     C_R   0.470699 0.463015 0.876046 -0.110119
C9    C     C_R   0.511308 0.528977 0.912847 0.185517
C10   C     C_R   0.542771 0.586694 0.874449 0.266354
C11   C     C_R   0.527771 0.578628 0.801297 -0.142345
C12   C     C_R   0.588557 0.199822 0.495093 0.175880
C13   C     C_R   0.439811 0.554287 0.133640 0.222271
C14   C     C_R   0.448032 0.552085 0.207196 0.185186
C15   C     C_R   0.476318 0.497333 0.089618 0.126508
C16   C     C_R   0.511705 0.492959 0.311347 0.540682
C17   C     C_R   0.500960 0.495855 0.235603 0.007275
C18   C     C_R   0.537400 0.440237 0.191168 0.187587
C19   C     C_R   0.521111 0.440500 0.118843 -0.132691
C20   C     C_R   0.486516 0.506820 0.688836 0.563890
C21   C     C_R   0.834224 0.514216 0.515333 0.518775
C22   C     C_R   0.163981 0.485608 0.485776 0.537311
C23   C     C_R   0.581231 0.127870 0.499900 -0.121670
C24   C     C_2   0.030529 0.485740 0.478786 -0.111100
C25   C     C_2   0.965501 0.519840 0.527196 0.251225
C26   C     C_R   0.477992 0.232984 0.490839 -0.028455
C27   C     C_3   0.299982 0.586526 0.286232 0.044796
C28   C     C_3   0.195035 0.541342 0.240928 -0.270365
C29   C     C_3   0.078927 0.528633 0.282614 -0.473861
C30   C     C_3   0.711142 0.395223 0.228549 0.000792
C31   C     C_3   0.759849 0.330737 0.256187 -0.234884
C32   C     C_3   0.898721 0.343356 0.275512 -0.462470
C33   C     C_3   0.430583 0.930523 0.663761 0.027525
C34   C     C_R   0.466078 0.087028 0.499032 0.131772
C35   C     C_3   0.348562 0.971439 0.712152 -0.253907
C36   C     C_3   0.397921 0.977415 0.788330 -0.440549
C37   C     C_3   0.205932 0.063734 0.555001 0.046064
C38   C     C_3   0.076480 0.023197 0.549947 -0.226291
C39   C     C_3   0.071959 0.954371 0.502889 -0.353590
C40   C     C_R   0.355669 0.119258 0.493302 0.257631
C41   C     C_R   0.360255 0.192252 0.488360 0.195923
C42   C     C_R   0.448755 0.881619 0.552946 0.280035
C43   C     C_R   0.427820 0.807646 0.546372 0.171794
C44   C     C_R   0.544845 0.915556 0.516731 0.191192
H1    H     H_    0.983227 0.458592 0.431436 0.027849
H2    H     H_    0.323704 0.560688 0.333488 0.120555
H3    H     H_    0.170506 0.567927 0.194210 0.225049
H4    H     H_    0.225339 0.489486 0.222867 0.156148
H5    H     H_    0.099568 0.499039 0.327905 0.155361
H6    H     H_    0.004319 0.497432 0.248467 0.150750
H7    H     H_    0.045223 0.579221 0.301942 0.165779
H8    H     H_    0.552432 0.696124 0.132363 0.351189
H9    H     H_    0.703119 0.763478 0.885114 0.378508
H10   H     H_    0.737010 0.441393 0.267729 0.135861
H11   H     H_    0.755724 0.404711 0.178250 0.139301
H12   H     H_    0.551074 0.623116 0.771759 0.185952
H13   H     H_    0.709243 0.317486 0.303349 0.230128
H14   H     H_    0.742207 0.285426 0.215455 0.190966
H15   H     H_    0.951452 0.356018 0.228870 0.159549
H16   H     H_    0.930873 0.295391 0.295004 0.193217
H17   H     H_    0.917770 0.387233 0.317592 0.138634
H18   H     H_    0.237936 0.401477 0.714570 0.369519
H19   H     H_    0.935994 0.583727 0.711410 0.381111
H20   H     H_    0.207875 0.733107 0.473343 0.318686
H21   H     H_    0.524160 0.960639 0.664606 0.139626
H22   H     H_    0.439652 0.878796 0.684218 0.173178
H23   H     H_    0.449955 0.417522 0.904442 0.188568
H24   H     H_    0.345666 0.025060 0.695634 0.158655
H25   H     H_    0.252510 0.944511 0.708322 0.210608
H26   H     H_    0.398866 0.924500 0.806926 0.183431
H27   H     H_    0.337049 0.007897 0.821942 0.177090
H28   H     H_    0.493512 0.004846 0.793477 0.167097
H29   H     H_    0.202298 0.113136 0.589812 0.156344
H30   H     H_    0.271325 0.031789 0.579885 0.176244
H31   H     H_    0.049866 0.011493 0.603445 0.127379
H32   H     H_    0.007779 0.056024 0.529001 0.218837
H33   H     H_    0.087952 0.964846 0.447727 0.206252
H34   H     H_    0.545390 0.396243 0.084829 0.167615
H35   H     H_    0.979166 0.924450 0.504637 0.133357
H36   H     H_    0.143689 0.922041 0.521007 0.222895
H37   H     H_    0.134261 0.287833 0.401563 0.365721
H38   H     H_    0.688075 0.775788 0.456359 0.176674
H39   H     H_    0.666685 0.103549 0.503707 0.196160
H40   H     H_    0.707468 0.902536 0.457971 0.149399
H41   H     H_    0.822271 0.335551 0.445369 0.355184
H42   H     H_    0.262525 0.635668 0.306721 0.170372
N1    N     N_2   0.457016 0.013123 0.502611 -0.151559
N2    N     N_2   0.558004 0.989071 0.513375 -0.243852
N3    N     N_2   0.524643 0.537361 0.987554 -0.101509
N4    N     N_2   0.459203 0.491820 0.015796 -0.216304
O1    O     O_3   0.500000 0.500000 0.500000 -0.499629
O2    O     O_R   0.783160 0.551820 0.473170 -0.559653
O3    O     O_R   0.222430 0.530340 0.530340 -0.446934
O4    O     O_R   0.771990 0.472690 0.551320 -0.483597
O5    O     O_R   0.222420 0.445150 0.445160 -0.550194
O6    O     O_2   0.779449 0.277290 0.566018 -0.204048
O7    O     O_2   0.830210 0.196120 0.467728 -0.242069
O8    O     O_3   0.738000 0.309933 0.439259 -0.566049
O9    O     O_3   0.408430 0.606997 0.250078 -0.526078
O10   O     O_2   0.315805 0.607268 0.028899 -0.187872
O11   O     O_2   0.302737 0.665936 0.146310 -0.243301
O12   O     O_R   0.435070 0.449940 0.339290 -0.531398
O13   O     O_3   0.510110 0.684873 0.085375 -0.397768
O14   O     O_2   0.493092 0.707647 0.940741 -0.174278
O15   O     O_2   0.686380 0.661953 0.977533 -0.211800
O16   O     O_3   0.678530 0.717043 0.858906 -0.527729
O17   O     O_3   0.580809 0.382688 0.218177 -0.538062
O18   O     O_2   0.517425 0.337909 0.730910 -0.198733
O19   O     O_2   0.346093 0.324042 0.809791 -0.261938
O20   O     O_3   0.306180 0.378026 0.692697 -0.461579
O21   O     O_2   0.092647 0.499465 0.646042 -0.259043
O22   O     O_2   0.100874 0.620115 0.613275 -0.162057
O23   O     O_R   0.419380 0.543640 0.654290 -0.504198
O24   O     O_3   0.898649 0.566783 0.664163 -0.512691
O25   O     O_2   0.317255 0.732296 0.641948 -0.195846
O26   O     O_2   0.196681 0.819580 0.595867 -0.257208
O27   O     O_3   0.219396 0.707090 0.514943 -0.471021
O28   O     O_3   0.375896 0.921320 0.594970 -0.540931
O29   O     O_3   0.242739 0.078142 0.487301 -0.496045
O30   O     O_2   0.105966 0.183095 0.491203 -0.204421
O31   O     O_2   0.222712 0.294729 0.534460 -0.247433
O32   O     O_3   0.205303 0.259192 0.399951 -0.479459
O33   O     O_R   0.586230 0.658380 0.469080 -0.547898
O34   O     O_R   0.559310 0.348040 0.537340 -0.459627
O35   O     O_R   0.435110 0.654980 0.544320 -0.457340
O36   O     O_R   0.419350 0.338590 0.449260 -0.472848
O37   O     O_R   0.586210 0.538520 0.349230 -0.538626
O38   O     O_R   0.559330 0.467910 0.657200 -0.472508
S1    S     S_3+6 0.739130 0.245721 0.493035 0.048808
S2    S     S_3+6 0.385974 0.628602 0.097928 0.117201
S3    S     S_3+6 0.600612 0.669902 0.915991 0.093045
S4    S     S_3+6 0.407426 0.370731 0.759617 0.060825
S5    S     S_3+6 0.019930 0.552205 0.614353 0.094837
S6    S     S_3+6 0.287404 0.767423 0.577448 0.072981
S7    S     S_3+6 0.218801 0.232341 0.480718 0.088346
Zn1   Zn    Zn3+2 0.396020 0.434560 0.434560 1.008893
Zn2   Zn    Zn3+2 0.611960 0.561120 0.448760 0.948908
Zn3   Zn    Zn3+2 0.595990 0.448060 0.560420 1.103176
Zn4   Zn    Zn3+2 0.396040 0.556260 0.556260 1.090194

loop_
_geom_bond_atom_site_label_1
_geom_bond_atom_site_label_2
_ccdc_geom_bond_type
C8    C9    A    
C37   H30   S    
C28   H3    S    
C30   O17   S    
C43   S6    S    
C22   O5    A    
C35   C36   S    
O22   S5    D    
N1    N2    D    
C33   H21   S    
C7    C8    A    
O15   S3    D    
C29   H5    S    
O35   Zn4   S    
C15   C19   A    
C30   H10   S    
C12   C23   A    
C27   O9    S    
C23   H39   S    
C34   C40   A    
C24   H1    S    
C39   H33   S    
C31   H14   S    
O34   Zn3   S    
C28   C29   S    
C1    O35   A    
C32   H17   S    
C18   C19   A    
C30   C31   S    
H8    O13   S    
O10   S2    D    
O26   S6    D    
C21   O4    A    
O27   S6    S    
C4    O34   A    
C1    C2    S    
O38   Zn3   S    
C18   O17   S    
C37   H29   S    
H41   O8    S    
C33   C35   S    
O1    Zn2   S    
H19   O24   S    
H9    O16   S    
O1    Zn1   S    
C16   C17   S    
O14   S3    D    
H18   O20   S    
C13   S2    S    
O23   Zn4   S    
O20   S4    S    
C25   S5    S    
C9    C10   A    
C36   H27   S    
C38   H31   S    
O11   S2    D    
O36   Zn1   S    
C33   O28   S    
C13   C14   A    
C14   C17   A    
C42   C44   A    
C3    H38   S    
O2    Zn2   S    
O13   S2    S    
C36   H26   S    
C33   H22   S    
C29   H6    S    
O16   S3    S    
C12   S1    S    
C14   O9    S    
C24   C25   D    
C9    N3    S    
C6    C11   A    
C5    H40   S    
C42   O28   S    
C38   H32   S    
H20   O27   S    
C12   C26   A    
C39   H35   S    
C19   H34   S    
C1    O33   A    
C37   C38   S    
O3    Zn4   S    
O1    Zn3   S    
C31   C32   S    
C37   O29   S    
C2    C43   A    
C23   C34   A    
O19   S4    D    
C17   C18   A    
O31   S7    D    
C7    S4    S    
O1    Zn4   S    
C27   H2    S    
C16   O12   A    
C40   C41   A    
C5    C44   A    
C13   C15   A    
O4    Zn3   S    
C27   H42   S    
C22   C24   S    
C42   C43   A    
C32   H16   S    
C41   S7    S    
C29   H7    S    
C21   C25   S    
C28   H4    S    
O21   S5    D    
C10   S3    S    
C3    C5    A    
C4    C26   S    
C20   O38   A    
C6    C7    A    
O25   S6    D    
C6    C20   S    
C30   H11   S    
O33   Zn2   S    
C4    O36   A    
H37   O32   S    
O30   S7    D    
C39   H36   S    
C31   H13   S    
C2    C3    A    
O7    S1    D    
C15   N4    S    
C38   C39   S    
C35   H24   S    
O8    S1    S    
O5    Zn1   S    
C22   O3    A    
O24   S5    S    
C34   N1    S    
C20   O23   A    
C16   O37   A    
O12   Zn1   S    
O32   S7    S    
O18   S4    D    
C10   C11   A    
C40   O29   S    
C35   H25   S    
C8    H23   S    
C27   C28   S    
O37   Zn2   S    
C32   H15   S    
N3    N4    D    
C44   N2    S    
C11   H12   S    
C36   H28   S    
C26   C41   A    
O6    S1    D    
C21   O2    A    
