data_mof_unit_pretest_1468.cif
_audit_creation_date              2012-12-10T18:52:13-0500
_audit_creation_method            fapswitch 2.2
_symmetry_space_group_name_H-M    P1
_symmetry_Int_Tables_number       1
_space_group_crystal_system       triclinic
_cell_length_a                    15.728626
_cell_length_b                    10.731854
_cell_length_c                    9.797534
_cell_angle_alpha                 90.612103
_cell_angle_beta                  90.199853
_cell_angle_gamma                 90.183258
_cell_volume                      1653.68436867

loop_
_atom_site_label
_atom_site_type_symbol
_atom_type_description
_atom_site_fract_x
_atom_site_fract_y
_atom_site_fract_z
_atom_type_partial_charge
C1    C     C_R   0.506467 0.259492 0.498661 0.942800
C2    C     C_R   0.509277 0.739788 0.501263 0.941300
C3    C     C_R   0.540884 0.931474 0.377632 0.446131
C4    C     C_R   0.544219 0.068518 0.620493 0.432529
C5    C     C_R   0.529697 0.871486 0.503432 -0.308356
C6    C     C_R   0.525602 0.127525 0.495698 -0.304905
C7    C     C_R   0.565744 0.552273 0.073004 -0.028754
C8    C     C_R   0.434854 0.445834 0.926964 -0.033539
C9    C     C_R   0.565374 0.553368 0.928935 -0.117653
C10   C     C_R   0.434781 0.446115 0.071117 -0.082134
C11   C     C_R   0.337761 0.499582 0.499714 0.912002
C12   C     C_R   0.662219 0.500148 0.500290 0.861694
C13   C     C_3   0.971711 0.413598 0.589172 -0.257962
C14   C     C_3   0.027886 0.587530 0.412449 -0.329550
C15   C     C_3   0.026693 0.385253 0.461236 -0.337161
C16   C     C_3   0.972467 0.615042 0.540664 -0.350488
C17   C     C_1   0.248912 0.498510 0.498947 -0.191602
C18   C     C_1   0.751008 0.500804 0.501123 -0.194774
C19   C     C_3   0.028853 0.526332 0.624105 0.581146
C20   C     C_3   0.971159 0.474481 0.377243 0.583299
C21   C     C_3   0.082883 0.498520 0.498578 0.051816
C22   C     C_3   0.916978 0.501615 0.502800 0.093765
C23   C     C_1   0.173671 0.497946 0.498327 -0.034071
C24   C     C_1   0.826223 0.501347 0.502114 -0.004271
C25   C     C_R   0.530339 0.059406 0.370855 0.022782
C26   C     C_R   0.540020 0.939393 0.627312 0.023049
H1    H     H_    0.050405 0.292357 0.428537 0.149200
H2    H     H_    0.947908 0.707409 0.573538 0.145121
H3    H     H_    0.946918 0.344959 0.663236 0.150539
H4    H     H_    0.052610 0.656732 0.338978 0.155424
H5    H     H_    0.618715 0.592345 0.128563 0.141944
H6    H     H_    0.382944 0.402340 0.871431 0.135375
H7    H     H_    0.617809 0.595446 0.875016 0.129990
H8    H     H_    0.382809 0.402862 0.125134 0.128653
N1    N     N_R   0.499980 0.499970 0.857200 -0.078574
N2    N     N_R   0.500020 0.500030 0.142800 -0.078904
O1    O     O_R   0.499990 0.316750 0.614620 -0.561419
O2    O     O_R   0.500010 0.683250 0.385380 -0.565899
O3    O     O_R   0.500000 0.316780 0.385290 -0.630603
O4    O     O_R   0.500000 0.683220 0.614710 -0.624028
O5    O     O_R   0.376780 0.499970 0.614640 -0.618819
O6    O     O_R   0.623220 0.500030 0.385360 -0.628498
O7    O     O_R   0.376780 0.500000 0.385310 -0.621053
O8    O     O_R   0.623220 0.500000 0.614690 -0.630958
Zn1   Zn    Zn3+2 0.500000 0.499980 0.653120 0.955788
Zn2   Zn    Zn3+2 0.500000 0.500020 0.346880 0.958325
O9    O     O_3   0.933413 0.449928 0.248852 -0.612822
C27   C     C_3   0.996785 0.414978 0.154627 0.087246
H9    H     H_    0.024786 0.323646 0.182705 0.135838
H10   H     H_    0.048110 0.486481 0.149396 0.141486
C28   C     C_3   0.957006 0.401440 0.013463 -0.769052
H11   H     H_    0.931403 0.492475 0.979791 0.265576
H12   H     H_    0.005735 0.369455 0.939364 0.235230
H13   H     H_    0.904562 0.331923 0.015452 0.239037
O10   O     O_3   0.061721 0.544880 0.757035 -0.626111
C29   C     C_3   0.093621 0.667249 0.771405 0.100450
H14   H     H_    0.040328 0.735077 0.774327 0.136432
H15   H     H_    0.137723 0.691473 0.686975 0.144838
C30   C     C_3   0.142512 0.678140 0.905188 -0.824073
H16   H     H_    0.196099 0.610985 0.905640 0.259343
H17   H     H_    0.168331 0.774030 0.917556 0.208123
H18   H     H_    0.099699 0.658107 0.992151 0.247868
C31   C     C_3   0.524946 0.118417 0.230514 -0.733931
H19   H     H_    0.577075 0.187368 0.218086 0.232645
H20   H     H_    0.530785 0.050735 0.144889 0.260565
H21   H     H_    0.461929 0.162845 0.216424 0.235388
C32   C     C_3   0.548496 0.877997 0.765811 -0.761188
H22   H     H_    0.487197 0.834802 0.795608 0.256598
H23   H     H_    0.599900 0.807394 0.762489 0.216114
H24   H     H_    0.565312 0.943858 0.849555 0.256136
O11   O     O_3   0.560481 0.865166 0.259854 -0.584321
C33   C     C_3   0.649796 0.849119 0.253087 0.121169
H25   H     H_    0.666104 0.754923 0.290915 0.153895
H26   H     H_    0.687087 0.918929 0.314392 0.112748
C34   C     C_3   0.678597 0.860209 0.105500 -0.878628
H27   H     H_    0.670816 0.957627 0.070833 0.246598
H28   H     H_    0.746673 0.834274 0.097024 0.217155
H29   H     H_    0.640398 0.798017 0.038046 0.255358
O12   O     O_3   0.561199 0.136986 0.738192 -0.580464
C35   C     C_3   0.649389 0.162400 0.743087 0.108853
H30   H     H_    0.668506 0.223512 0.657168 0.135059
H31   H     H_    0.687211 0.074742 0.738722 0.123154
C36   C     C_3   0.670543 0.229336 0.876503 -0.797367
H32   H     H_    0.739799 0.249342 0.881819 0.197558
H33   H     H_    0.635322 0.318438 0.882807 0.270217
H34   H     H_    0.652500 0.170402 0.964292 0.238581

loop_
_geom_bond_atom_site_label_1
_geom_bond_atom_site_label_2
_ccdc_geom_bond_type
C16   H2    S    
O10   C29   S    
C31   H20   S    
C5    C26   A    
C7    N2    A    
C17   C23   T    
C18   C24   T    
C26   C32   S    
C14   C21   S    
C13   H3    S    
C19   C21   S    
C35   C36   S    
O6    Zn2   S    
C6    C25   A    
C29   H14   S    
C25   C31   S    
C12   O6    A    
C27   C28   S    
C36   H32   S    
N2    Zn2   S    
C1    O1    A    
C27   H10   S    
C31   H21   S    
C30   H16   S    
C9    H7    S    
C15   C20   S    
C14   H4    S    
C33   C34   S    
C34   H29   S    
O4    Zn1   S    
C30   H17   S    
C7    H5    S    
C13   C19   S    
C32   H22   S    
C8    H6    S    
C14   C20   S    
C3    C25   A    
O12   C35   S    
C4    O12   S    
C35   H31   S    
C33   H25   S    
C28   H11   S    
C28   H12   S    
C8    N1    A    
C3    O11   S    
C34   H27   S    
C2    O2    A    
C15   H1    S    
O9    C27   S    
C10   H8    S    
C11   O7    A    
C34   H28   S    
O3    Zn2   S    
C33   H26   S    
C27   H9    S    
C36   H33   S    
C20   C22   S    
C13   C15   S    
C22   C24   S    
C4    C6    A    
O1    Zn1   S    
N1    Zn1   S    
O8    Zn1   S    
C19   O10   S    
C7    C9    A    
C11   C17   S    
C30   H18   S    
C16   C22   S    
C35   H30   S    
C3    C5    A    
C4    C26   A    
C29   C30   S    
C28   H13   S    
C32   H24   S    
C21   C23   S    
O11   C33   S    
C12   O8    A    
C16   C19   S    
C29   H15   S    
C13   C22   S    
C11   O5    A    
C14   C16   S    
O7    Zn2   S    
O2    Zn2   S    
C20   O9    S    
C1    O3    A    
C31   H19   S    
C2    C5    S    
C2    O4    A    
C15   C21   S    
C36   H34   S    
C8    C10   A    
C12   C18   S    
C1    C6    S    
C9    N1    A    
O5    Zn1   S    
C10   N2    A    
C32   H23   S    
