data_mof_unit_pretest_1229.cif
_audit_creation_date              2012-12-10T19:21:27-0500
_audit_creation_method            fapswitch 2.2
_symmetry_space_group_name_H-M    P1
_symmetry_Int_Tables_number       1
_space_group_crystal_system       triclinic
_cell_length_a                    10.878395
_cell_length_b                    15.990716
_cell_length_c                    14.763979
_cell_angle_alpha                 90.284586
_cell_angle_beta                  90.772646
_cell_angle_gamma                 90.323603
_cell_volume                      2567.9361004

loop_
_atom_site_label
_atom_site_type_symbol
_atom_type_description
_atom_site_fract_x
_atom_site_fract_y
_atom_site_fract_z
_atom_type_partial_charge
C1    C     C_R   0.499722 0.340889 0.499787 0.809912
C2    C     C_R   0.499960 0.659124 0.500212 0.826983
C3    C     C_R   0.871892 0.495386 0.501660 -0.109765
C4    C     C_R   0.128076 0.500085 0.497403 -0.115453
C5    C     C_R   0.940937 0.469922 0.578532 0.081981
C6    C     C_R   0.059280 0.525261 0.420663 0.065147
C7    C     C_R   0.565306 0.956803 0.566801 -0.346827
C8    C     C_R   0.432425 0.043284 0.433684 -0.349997
C9    C     C_R   0.498684 0.912713 0.500191 -0.030444
C10   C     C_R   0.499138 0.087358 0.500231 -0.028447
C11   C     C_R   0.430383 0.955735 0.433997 0.525622
C12   C     C_R   0.567103 0.044341 0.566613 0.523717
C13   C     C_1   0.499632 0.823196 0.500648 0.031371
C14   C     C_1   0.498670 0.176857 0.499535 0.027577
C15   C     C_1   0.499049 0.251861 0.499426 -0.183347
C16   C     C_1   0.499884 0.748178 0.500609 -0.175793
C17   C     C_R   0.503333 0.575309 0.952538 -0.216390
C18   C     C_R   0.487331 0.424752 0.047327 -0.117039
C19   C     C_R   0.494840 0.500067 0.902767 0.032640
C20   C     C_R   0.497627 0.499908 0.097084 0.082620
C21   C     C_R   0.486267 0.424807 0.951498 -0.172675
C22   C     C_R   0.505575 0.575175 0.048334 -0.191491
C23   C     C_R   0.261712 0.500970 0.499169 0.788552
C24   C     C_R   0.738276 0.497703 0.500726 0.800059
C25   C     C_1   0.497715 0.500017 0.802685 0.109006
C26   C     C_1   0.499193 0.499891 0.197260 0.122464
C27   C     C_R   0.223647 0.668826 0.259989 -0.182913
C28   C     C_R   0.771615 0.337457 0.748664 -0.201895
C29   C     C_R   0.166189 0.638453 0.337069 -0.202779
C30   C     C_R   0.815362 0.367852 0.666667 -0.187382
C31   C     C_R   0.116744 0.557324 0.337490 -0.040758
C32   C     C_R   0.886381 0.441362 0.664753 -0.030750
C33   C     C_R   0.125948 0.506020 0.259925 0.458737
C34   C     C_R   0.915801 0.483752 0.746404 0.437559
C35   C     C_R   0.180483 0.537409 0.181035 0.458262
C36   C     C_R   0.871030 0.452910 0.829248 0.449667
C37   C     C_R   0.231318 0.618934 0.182483 -0.307561
C38   C     C_R   0.800298 0.379042 0.829654 -0.274927
C39   C     C_R   0.932044 0.521663 0.423333 -0.183837
C40   C     C_R   0.068347 0.471359 0.574327 -0.192198
Cu1   Cu    Cu3+1 0.500040 0.500000 0.589220 0.979549
Cu2   Cu    Cu3+1 0.499960 0.500000 0.410780 0.974927
H1    H     H_    0.278451 0.643801 0.124476 0.157551
H2    H     H_    0.768580 0.353328 0.892923 0.168743
H3    H     H_    0.510078 0.634336 0.917265 0.140855
H4    H     H_    0.480645 0.365737 0.082636 0.128759
H5    H     H_    0.263219 0.731077 0.260481 0.183060
H6    H     H_    0.717086 0.280642 0.749606 0.184457
H7    H     H_    0.161188 0.677804 0.396840 0.147626
H8    H     H_    0.794774 0.333788 0.604630 0.144583
H9    H     H_    0.879889 0.542041 0.364398 0.166516
H10   H     H_    0.121485 0.449074 0.631878 0.153773
H11   H     H_    0.616080 0.923433 0.618779 0.178867
H12   H     H_    0.381683 0.076677 0.381703 0.174448
H13   H     H_    0.513398 0.634135 0.084406 0.137118
H14   H     H_    0.479673 0.365798 0.915397 0.137015
N1    N     N_1   0.500040 0.499980 0.276710 -0.157955
N2    N     N_1   0.499960 0.500020 0.723290 -0.151156
O1    O     O_R   0.500060 0.380310 0.575320 -0.562949
O2    O     O_R   0.499940 0.619690 0.424680 -0.559145
O3    O     O_R   0.500000 0.380310 0.424640 -0.579133
O4    O     O_R   0.500000 0.619690 0.575360 -0.572067
O5    O     O_R   0.319670 0.500010 0.575340 -0.583965
O6    O     O_R   0.680330 0.499990 0.424660 -0.578630
O7    O     O_R   0.319610 0.500010 0.424650 -0.583652
O8    O     O_R   0.680390 0.499990 0.575350 -0.562547
O9    O     O_3   0.073581 0.426986 0.258744 -0.569110
C41   C     C_3   0.164588 0.368129 0.282076 -0.224518
H15   H     H_    0.190851 0.373780 0.354799 0.148902
H16   H     H_    0.247486 0.373609 0.238974 0.173059
H17   H     H_    0.125864 0.304468 0.271450 0.175430
O10   O     O_3   0.978430 0.559463 0.742265 -0.573020
C42   C     C_3   0.092883 0.554987 0.788330 -0.263567
H18   H     H_    0.162059 0.589827 0.748610 0.180818
H19   H     H_    0.128362 0.490165 0.797336 0.126811
H20   H     H_    0.085956 0.586645 0.854996 0.191744
O11   O     O_3   0.192038 0.483503 0.107615 -0.568411
C43   C     C_3   0.162650 0.523578 0.025424 -0.255307
H21   H     H_    0.241814 0.560820 0.001113 0.153359
H22   H     H_    0.079163 0.563217 0.030784 0.171984
H23   H     H_    0.143305 0.474650 0.973638 0.217741
O12   O     O_3   0.906940 0.491051 0.909656 -0.605012
C44   C     C_3   0.804572 0.528856 0.949778 -0.283545
H24   H     H_    0.741681 0.480909 0.977791 0.184394
H25   H     H_    0.755349 0.570541 0.901361 0.171611
H26   H     H_    0.837313 0.568313 0.007293 0.181590
O13   O     O_3   0.628846 0.087685 0.634661 -0.569079
C45   C     C_3   0.753200 0.095555 0.610407 -0.334298
H27   H     H_    0.763023 0.130092 0.545578 0.157684
H28   H     H_    0.798147 0.033343 0.605858 0.163267
H29   H     H_    0.802249 0.132199 0.663831 0.191385
O14   O     O_3   0.367754 0.912336 0.366412 -0.569663
C46   C     C_3   0.243001 0.906636 0.390354 -0.339195
H30   H     H_    0.200059 0.969547 0.394362 0.162213
H31   H     H_    0.231765 0.872640 0.455400 0.159532
H32   H     H_    0.192907 0.870535 0.337039 0.187343

loop_
_geom_bond_atom_site_label_1
_geom_bond_atom_site_label_2
_ccdc_geom_bond_type
C39   H9    S    
O13   C45   S    
C46   H30   S    
Cu2   O6    S    
C27   C29   A    
C18   C21   A    
C42   H18   S    
C29   H7    S    
O11   C43   S    
C35   C37   A    
C17   H3    S    
Cu1   N2    S    
C1    O1    A    
C2    O2    A    
Cu1   Cu2   S    
C9    C13   S    
C33   C35   A    
C11   O14   S    
C4    C40   A    
C36   O12   S    
C41   H15   S    
Cu2   O7    S    
C31   C33   A    
C1    C15   S    
C2    C16   S    
C18   C20   A    
C24   O8    A    
C5    C32   S    
C23   O5    A    
C6    C31   S    
C30   H8    S    
C3    C39   A    
C24   O6    A    
C42   H19   S    
C3    C24   S    
Cu1   O4    S    
C18   H4    S    
Cu2   N1    S    
C7    C12   A    
O9    C41   S    
Cu1   O1    S    
C4    C6    A    
C10   C14   S    
Cu2   O2    S    
C4    C23   S    
C43   H21   S    
C40   H10   S    
C35   O11   S    
C32   C34   A    
C37   H1    S    
C38   H2    S    
C44   H24   S    
C45   H29   S    
C28   C38   A    
C43   H22   S    
C9    C11   A    
Cu2   O3    S    
C22   H13   S    
C10   C12   A    
C41   H16   S    
C44   H25   S    
C45   H28   S    
C46   H32   S    
C42   H20   S    
C5    C40   A    
C25   N2    T    
Cu1   O5    S    
C8    H12   S    
C34   O10   S    
C33   O9    S    
C27   H5    S    
C7    C9    A    
C28   H6    S    
C12   O13   S    
C19   C21   A    
C6    C39   A    
C20   C22   A    
O10   C42   S    
C3    C5    A    
C1    O3    A    
C21   H14   S    
C41   H17   S    
Cu1   O8    S    
C17   C22   A    
C23   O7    A    
C36   C38   A    
C29   C31   A    
C30   C32   A    
C43   H23   S    
C46   H31   S    
C20   C26   S    
C27   C37   A    
C8    C11   A    
C28   C30   A    
O14   C46   S    
C17   C19   A    
C34   C36   A    
C19   C25   S    
C26   N1    T    
C44   H26   S    
C45   H27   S    
C8    C10   A    
O12   C44   S    
C13   C16   T    
C7    H11   S    
C14   C15   T    
C2    O4    A    
