data_mof_unit_pretest_1743.cif
_audit_creation_date              2012-12-10T18:27:52-0500
_audit_creation_method            fapswitch 2.2
_symmetry_space_group_name_H-M    P1
_symmetry_Int_Tables_number       1
_space_group_crystal_system       triclinic
_cell_length_a                    18.186585
_cell_length_b                    18.169391
_cell_length_c                    18.1591
_cell_angle_alpha                 90.217448
_cell_angle_beta                  119.875535
_cell_angle_gamma                 119.869849
_cell_volume                      4251.22819689

loop_
_atom_site_label
_atom_site_type_symbol
_atom_type_description
_atom_site_fract_x
_atom_site_fract_y
_atom_site_fract_z
_atom_type_partial_charge
Br1   Br    Br    0.336612 0.191022 0.030532 -0.608785
C1    C     C_R   0.782481 0.641961 0.641163 0.751180
C2    C     C_3   0.059456 0.199167 0.279635 -0.386563
C3    C     C_3   0.101840 0.300454 0.301015 0.209957
C4    C     C_R   0.217401 0.358571 0.358748 0.741734
C5    C     C_3   0.898123 0.198657 0.199150 0.211970
C6    C     C_3   0.939939 0.259279 0.150699 -0.400213
C7    C     C_3   0.940352 0.139649 0.220106 -0.384890
C8    C     C_3   0.608259 0.318976 0.759026 -0.399339
C9    C     C_3   0.608199 0.258896 0.819010 -0.404005
C10   C     C_3   0.470207 0.319653 0.759694 -0.404572
C11   C     C_3   0.419249 0.199149 0.639510 -0.384578
C12   C     C_3   0.583166 0.783157 0.834583 -0.151947
C13   C     C_3   0.499420 0.300423 0.698581 0.208480
C14   C     C_3   0.499323 0.198487 0.800391 0.198382
C15   C     C_3   0.470139 0.259570 0.819691 -0.378464
C16   C     C_R   0.499848 0.641240 0.358668 0.743155
C17   C     C_3   0.419175 0.139503 0.699071 -0.392750
C18   C     C_3   0.940910 0.785683 0.766999 -0.407778
C19   C     C_3   0.060859 0.844911 0.826060 -0.414177
C20   C     C_3   0.939474 0.647013 0.749812 -0.405825
C21   C     C_3   0.937793 0.729737 0.637958 -0.416878
C22   C     C_3   0.897815 0.699933 0.698017 0.190632
C23   C     C_3   0.583152 0.798515 0.750848 -0.178164
C24   C     C_3   0.101691 0.800383 0.798347 0.158271
C25   C     C_3   0.059363 0.707091 0.811099 -0.410716
C26   C     C_3   0.057407 0.789529 0.695757 -0.123644
C27   C     C_3   0.579307 0.360393 0.278660 -0.384891
C28   C     C_R   0.499866 0.358592 0.641199 0.741145
C29   C     C_3   0.579671 0.300840 0.219344 -0.366723
C30   C     C_3   0.530017 0.241043 0.348966 -0.409859
C31   C     C_3   0.390622 0.240846 0.210454 -0.421547
C32   C     C_3   0.500002 0.301378 0.300371 0.166657
C33   C     C_3   0.499531 0.199622 0.198138 0.145061
C34   C     C_3   0.497208 0.814102 0.718228 -0.175497
C35   C     C_3   0.530343 0.181285 0.288817 -0.483208
C36   C     C_3   0.389362 0.179173 0.150304 0.104555
C37   C     C_3   0.608432 0.789113 0.349158 -0.400984
C38   C     C_3   0.608399 0.849122 0.289101 -0.400872
C39   C     C_3   0.469620 0.650272 0.210223 -0.396100
C40   C     C_R   0.500071 0.358549 0.358337 0.761566
C41   C     C_3   0.419713 0.720436 0.280035 -0.386874
C42   C     C_3   0.499421 0.698956 0.300820 0.206382
C43   C     C_3   0.499363 0.800802 0.198897 0.209683
C44   C     C_3   0.469565 0.710289 0.150141 -0.395722
C45   C     C_3   0.412428 0.712069 0.665120 -0.182666
C46   C     C_3   0.419674 0.780005 0.220412 -0.387518
C47   C     C_R   0.499755 0.141137 0.858550 0.755071
C48   C     C_R   0.499758 0.858609 0.141167 0.736462
C49   C     C_R   0.782542 0.141206 0.141315 0.736843
C50   C     C_R   0.217323 0.858309 0.858134 0.757687
C51   C     C_R   0.499988 0.141635 0.141493 0.812547
C52   C     C_R   0.499730 0.641355 0.641596 0.776278
C53   C     C_R   0.500090 0.858482 0.858411 0.760018
C54   C     C_3   0.498683 0.681078 0.781620 -0.204120
C55   C     C_3   0.413339 0.697107 0.749123 0.034015
C56   C     C_3   0.498620 0.697551 0.698813 0.042156
C57   C     C_3   0.497201 0.798172 0.801376 0.022682
C58   C     C_R   0.317125 0.632178 0.745088 0.114629
C59   C     C_R   0.247635 0.543894 0.683800 -0.174499
C60   C     C_R   0.159558 0.480940 0.680427 -0.156395
C61   C     C_R   0.140217 0.505450 0.738385 -0.120201
C62   C     C_R   0.209242 0.592781 0.800093 -0.150505
C63   C     C_R   0.297382 0.655973 0.803653 -0.112633
C64   C     C_R   0.097775 0.758085 0.655243 0.153986
C65   C     C_R   0.067893 0.668570 0.635670 -0.168916
C66   C     C_R   0.101305 0.641141 0.593856 -0.124359
C67   C     C_3   0.060130 0.319555 0.349719 -0.401575
C68   C     C_R   0.166226 0.702517 0.572267 -0.117182
C69   C     C_R   0.196775 0.791345 0.591201 -0.122528
C70   C     C_R   0.161703 0.818712 0.631096 -0.086961
C71   C     C_3   0.940145 0.259622 0.289702 -0.401753
C72   C     C_3   0.059903 0.319245 0.210695 -0.399127
H1    H     H_    0.911670 0.303189 0.277054 0.176000
H2    H     H_    0.667532 0.391042 0.802573 0.177288
H3    H     H_    0.499349 0.625657 0.806781 0.140884
H4    H     H_    0.630567 0.305333 0.716339 0.147724
H5    H     H_    0.630461 0.216224 0.805284 0.149071
H6    H     H_    0.667468 0.302332 0.891148 0.177067
H7    H     H_    0.526536 0.391733 0.803253 0.181158
H8    H     H_    0.526425 0.303020 0.891844 0.186043
H9    H     H_    0.340024 0.183574 0.595417 0.172342
H10   H     H_    0.438343 0.183068 0.594947 0.172021
H11   H     H_    0.438215 0.094929 0.682947 0.170932
H12   H     H_    0.088529 0.391344 0.223676 0.176385
H13   H     H_    0.339928 0.095430 0.683448 0.169466
H14   H     H_    0.392080 0.306500 0.717487 0.153432
H15   H     H_    0.653283 0.812818 0.904782 0.147333
H16   H     H_    0.391980 0.217391 0.806467 0.167884
H17   H     H_    0.913261 0.766808 0.810980 0.187912
H18   H     H_    0.912173 0.824845 0.731112 0.154690
H19   H     H_    0.090136 0.912874 0.819004 0.169348
H20   H     H_    0.089875 0.854485 0.898106 0.195309
H21   H     H_    0.909908 0.623617 0.791921 0.176193
H22   H     H_    0.086208 0.715677 0.882596 0.176032
H23   H     H_    0.911418 0.302809 0.135069 0.176477
H24   H     H_    0.904853 0.669239 0.585697 0.181653
H25   H     H_    0.908724 0.768223 0.600697 0.157680
H26   H     H_    0.080614 0.858030 0.691454 0.115644
H27   H     H_    0.652999 0.839239 0.750531 0.125305
H28   H     H_    0.910820 0.585901 0.701437 0.144090
H29   H     H_    0.090521 0.673863 0.797390 0.152075
H30   H     H_    0.658745 0.405268 0.342098 0.174783
H31   H     H_    0.559091 0.404064 0.243057 0.188231
H32   H     H_    0.561773 0.317145 0.156129 0.215535
H33   H     H_    0.658993 0.316479 0.255062 0.166181
H34   H     H_    0.087754 0.183168 0.244230 0.175658
H35   H     H_    0.608254 0.283675 0.413926 0.157797
H36   H     H_    0.608930 0.195395 0.324468 0.166091
H37   H     H_    0.331801 0.198333 0.223900 0.161885
H38   H     H_    0.496442 0.869365 0.692806 0.132674
H39   H     H_    0.368678 0.283901 0.175433 0.193635
H40   H     H_    0.333544 0.107869 0.139705 0.139496
H41   H     H_    0.473958 0.197488 0.364820 0.181287
H42   H     H_    0.475115 0.109204 0.276638 0.180315
H43   H     H_    0.667396 0.776043 0.364676 0.177401
H44   H     H_    0.631164 0.825250 0.414328 0.149426
H45   H     H_    0.087948 0.183394 0.343274 0.172110
H46   H     H_    0.631123 0.914247 0.325268 0.147863
H47   H     H_    0.667346 0.864641 0.276001 0.177400
H48   H     H_    0.525622 0.634241 0.222776 0.180363
H49   H     H_    0.342919 0.682010 0.594609 0.133896
H50   H     H_    0.525531 0.722853 0.134051 0.181195
H51   H     H_    0.340375 0.656891 0.244936 0.173155
H52   H     H_    0.439236 0.755789 0.343884 0.174029
H53   H     H_    0.439175 0.843805 0.255786 0.172731
H54   H     H_    0.340323 0.744905 0.156834 0.172682
H55   H     H_    0.391365 0.585394 0.174327 0.153222
H56   H     H_    0.911981 0.095482 0.255342 0.172348
H57   H     H_    0.391288 0.674408 0.085222 0.152027
H58   H     H_    0.088815 0.391675 0.365713 0.175866
H59   H     H_    0.089096 0.306181 0.414686 0.147655
H60   H     H_    0.911203 0.217347 0.325717 0.147033
H61   H     H_    0.261879 0.523730 0.638765 0.119307
H62   H     H_    0.106289 0.413168 0.632829 0.123865
H63   H     H_    0.072008 0.456713 0.735731 0.118003
H64   H     H_    0.194889 0.611390 0.845739 0.110415
H65   H     H_    0.349957 0.722205 0.853239 0.109723
H66   H     H_    0.015599 0.618568 0.649155 0.125731
H67   H     H_    0.911801 0.095202 0.156306 0.175197
H68   H     H_    0.075751 0.571790 0.577175 0.142874
H69   H     H_    0.191560 0.680863 0.539643 0.115377
H70   H     H_    0.246684 0.838850 0.573964 0.116640
H71   H     H_    0.185317 0.887735 0.643813 0.109473
H72   H     H_    0.088760 0.305699 0.174507 0.152731
H73   H     H_    0.910893 0.216757 0.085571 0.150777
O1    O     O_3   0.500000 0.500000 0.500000 -0.462026
O2    O     O_R   0.266230 0.883210 0.944500 -0.642125
O3    O     O_R   0.561150 0.178510 0.117240 -0.642432
O4    O     O_R   0.733670 0.616970 0.678220 -0.648461
O5    O     O_R   0.438720 0.882700 0.821420 -0.638300
O6    O     O_R   0.438610 0.055960 0.117240 -0.649297
O7    O     O_R   0.561250 0.882700 0.943960 -0.649629
O8    O     O_R   0.733630 0.055440 0.116700 -0.651576
O9    O     O_R   0.266260 0.883000 0.821740 -0.645702
O10   O     O_R   0.561190 0.178210 0.944500 -0.641526
O11   O     O_R   0.438650 0.883210 0.116920 -0.655682
O12   O     O_R   0.438720 0.616970 0.383270 -0.651096
O13   O     O_R   0.266300 0.444520 0.383270 -0.650130
O14   O     O_R   0.561280 0.616750 0.383040 -0.648336
O15   O     O_R   0.438750 0.321760 0.555460 -0.652725
O16   O     O_R   0.561320 0.444010 0.382720 -0.652395
O17   O     O_R   0.561210 0.617270 0.678540 -0.642272
O18   O     O_R   0.438790 0.321460 0.382720 -0.650057
O19   O     O_R   0.438680 0.617270 0.556010 -0.650424
O20   O     O_R   0.561250 0.444520 0.678220 -0.648610
O21   O     O_R   0.733700 0.616750 0.555460 -0.653393
O22   O     O_R   0.266330 0.321760 0.383040 -0.650952
O23   O     O_3   0.499930 0.999970 0.999970 -0.465832
O24   O     O_R   0.438680 0.055440 0.821740 -0.657088
O25   O     O_R   0.561210 0.883000 0.116700 -0.649333
O26   O     O_R   0.733610 0.178210 0.116920 -0.653042
Zn1   Zn    Zn3+2 0.412450 0.543930 0.456390 0.943903
Zn2   Zn    Zn3+2 0.587550 0.543620 0.456070 0.942567
Zn3   Zn    Zn3+2 0.412480 0.368530 0.456070 0.941032
Zn4   Zn    Zn3+2 0.587520 0.543930 0.631470 0.949252
Zn5   Zn    Zn3+2 0.587490 0.956040 0.043570 0.941257
Zn6   Zn    Zn3+2 0.587450 0.131440 0.043900 0.961305
Zn7   Zn    Zn3+2 0.412380 0.956350 0.043900 0.957539
Zn8   Zn    Zn3+2 0.412420 0.956040 0.868500 0.959389

loop_
_geom_bond_atom_site_label_1
_geom_bond_atom_site_label_2
_ccdc_geom_bond_type
C43   C48   S    
C1    O4    A    
C14   C17   S    
O4    Zn4   S    
C20   C25   S    
C21   H25   S    
O22   Zn3   S    
C33   C36   S    
C30   H35   S    
C18   C19   S    
C54   C55   S    
C53   O7    A    
C16   C42   S    
C9    H5    S    
O1    Zn2   S    
C41   H51   S    
C6    C72   S    
C63   H65   S    
C44   H50   S    
C5    C71   S    
C39   H48   S    
C19   H19   S    
C26   H26   S    
C69   H70   S    
C17   H13   S    
C31   H37   S    
C34   C57   S    
C26   C64   S    
C9    C14   S    
C37   C38   S    
O15   Zn3   S    
C10   C13   S    
O1    Zn3   S    
C36   H40   S    
C19   C24   S    
O19   Zn1   S    
C38   H47   S    
C39   H55   S    
O18   Zn3   S    
O11   Zn7   S    
C4    O22   A    
C61   H63   S    
C67   H59   S    
C16   O14   A    
O3    Zn6   S    
C33   C51   S    
C41   H52   S    
C37   H44   S    
O10   Zn6   S    
C39   C42   S    
C65   H66   S    
C10   H14   S    
C23   C56   S    
C4    O13   A    
C17   H11   S    
C30   C32   S    
C69   C70   A    
C31   H39   S    
C8    C9    S    
O23   Zn8   S    
C43   C46   S    
Br1   C36   S    
C6    H73   S    
C20   H28   S    
C65   C66   A    
C47   O10   A    
C44   H57   S    
C21   H24   S    
C40   O16   A    
C29   H33   S    
C62   H64   S    
C48   O11   A    
C68   C69   A    
C14   C47   S    
C38   C43   S    
O17   Zn4   S    
O23   Zn5   S    
C15   H16   S    
C21   C22   S    
C39   C44   S    
O7    Zn5   S    
C23   C34   S    
C29   C33   S    
C28   O15   A    
C71   H1    S    
C2    C7    S    
C48   O25   A    
C52   C56   S    
O1    Zn4   S    
C52   O17   A    
C5    C7    S    
C12   C57   S    
C19   H20   S    
C2    H34   S    
C24   C25   S    
C64   C70   A    
C11   H10   S    
O24   Zn8   S    
C59   C60   A    
C66   C68   A    
C28   O20   A    
C67   H58   S    
C18   C22   S    
C8    C13   S    
C24   C50   S    
C61   C62   A    
C6    H23   S    
C2    H45   S    
C37   H43   S    
C10   C15   S    
C27   H31   S    
O12   Zn1   S    
C67   C71   S    
C51   O3    A    
C50   O9    A    
C11   C17   S    
C58   C63   A    
C11   H9    S    
C8    H4    S    
C31   C36   S    
C5    C49   S    
C16   O12   A    
C72   H12   S    
C3    C72   S    
C5    C6    S    
O21   Zn2   S    
C47   O24   A    
C54   H3    S    
C52   O19   A    
C11   C13   S    
C27   C32   S    
O2    Zn7   S    
C21   C26   S    
C20   C22   S    
C45   C56   S    
O13   Zn1   S    
C40   O18   A    
C41   C42   S    
C13   C28   S    
C45   C55   S    
C2    C3    S    
C66   H68   S    
C59   H61   S    
O23   Zn6   S    
C35   H36   S    
C34   H38   S    
O9    Zn8   S    
C60   H62   S    
C46   H53   S    
C3    C67   S    
C53   C57   S    
O26   Zn6   S    
C25   H22   S    
C30   H41   S    
C23   H27   S    
O14   Zn2   S    
O25   Zn5   S    
C43   C44   S    
C3    C4    S    
C9    H6    S    
O1    Zn1   S    
C46   H54   S    
C53   O5    A    
O16   Zn2   S    
C24   C26   S    
O20   Zn4   S    
C55   C58   S    
C7    H67   S    
C32   C40   S    
C31   C32   S    
O6    Zn7   S    
C54   C56   S    
C68   H69   S    
C37   C42   S    
C29   H32   S    
C18   H17   S    
C25   H29   S    
C34   C45   S    
C27   H30   S    
C71   H60   S    
C50   O2    A    
C49   O8    A    
C35   H42   S    
C38   H46   S    
C12   H15   S    
C27   C29   S    
C15   H8    S    
C55   C57   S    
C33   C35   S    
C41   C46   S    
C60   C61   A    
C7    H56   S    
C18   H18   S    
C10   H7    S    
O5    Zn8   S    
C62   C63   A    
C58   C59   A    
C12   C23   S    
C64   C65   A    
C20   H21   S    
O8    Zn5   S    
C72   H72   S    
C1    C22   S    
C30   C35   S    
C45   H49   S    
C49   O26   A    
C8    H2    S    
C51   O6    A    
C1    O21   A    
O23   Zn7   S    
C14   C15   S    
C70   H71   S    
C12   C54   S    
