data_mof_unit_pretest_1504.cif
_audit_creation_date              2013-03-05T15:42:25-0500
_audit_creation_method            fapswitch 2.2
_symmetry_space_group_name_H-M    P1
_symmetry_Int_Tables_number       1
_space_group_crystal_system       triclinic
_cell_length_a                    6.956126
_cell_length_b                    17.447414
_cell_length_c                    18.883929
_cell_angle_alpha                 105.329553
_cell_angle_beta                  90.290037
_cell_angle_gamma                 90.788836
_cell_volume                      2210.03302222

loop_
_atom_site_label
_atom_site_type_symbol
_atom_site_description
_atom_site_fract_x
_atom_site_fract_y
_atom_site_fract_z
_atom_type_partial_charge
O1    O     O_R   0.494360 0.416740 0.414860 -0.514829
O2    O     O_R   0.818980 0.432970 0.557290 -0.545312
O3    O     O_R   0.994290 0.583260 0.585140 -0.539401
C1    C     C_R   0.650249 0.415951 0.580602 0.816903
O4    O     O_R   0.823740 0.407570 0.413690 -0.565589
O5    O     O_R   0.999090 0.557670 0.440510 -0.536817
C2    C     C_R   0.653583 0.386813 0.385198 0.776373
O6    O     O_R   0.489560 0.442330 0.559490 -0.540732
O7    O     O_3   0.662450 0.549280 0.508970 -0.259827
V1    V     V_3+5 0.935350 0.490860 0.498340 1.168885
O8    O     O_R   0.329100 0.567030 0.442710 -0.537142
C3    C     C_R   0.160718 0.584032 0.419373 0.840079
O9    O     O_R   0.324330 0.592430 0.586310 -0.554894
C4    C     C_R   0.157221 0.614121 0.613626 0.822990
V2    V     V_3+5 0.435960 0.509140 0.501660 1.182640
O10   O     O_3   0.158990 0.450720 0.491030 -0.258785
C5    C     C_2   0.227327 0.815980 0.760484 0.266794
C6    C     C_2   0.099610 0.820735 0.816399 0.103520
C7    C     C_2   0.225783 0.749129 0.691149 -0.046248
C8    C     C_2   0.153786 0.675367 0.684011 -0.158912
H1    H     H_    0.291360 0.761623 0.643185 0.108045
H2    H     H_    0.094609 0.657426 0.730108 0.114343
C9    C     C_1   0.111281 0.863884 0.132592 -0.151111
C10   C     C_1   0.118759 0.821301 0.176149 0.005259
C11   C     C_1   0.127963 0.771073 0.228035 0.025546
C12   C     C_1   0.135793 0.728779 0.271838 0.029278
C13   C     C_1   0.144995 0.678562 0.323732 0.015641
C14   C     C_1   0.152469 0.635997 0.367305 -0.143933
C15   C     C_1   0.641967 0.363972 0.632615 -0.159156
C16   C     C_1   0.637447 0.321348 0.676159 0.005846
C17   C     C_1   0.633356 0.271063 0.728018 0.029044
C18   C     C_1   0.630183 0.228716 0.771813 0.035044
C19   C     C_1   0.626124 0.178470 0.823703 0.030465
C20   C     C_1   0.621659 0.135911 0.867300 -0.108933
C21   C     C_2   0.776791 0.215014 0.214224 -0.042267
C22   C     C_2   0.614897 0.176469 0.184177 -0.163342
H3    H     H_    0.913884 0.197630 0.188036 0.117141
H4    H     H_    0.479250 0.189662 0.212502 0.117672
C23   C     C_2   0.780936 0.277185 0.285819 -0.140227
C24   C     C_2   0.636977 0.328393 0.312024 0.190956
O11   O     O_R   0.774180 0.057760 0.940580 -0.539706
O12   O     O_R   0.439830 0.092440 0.086330 -0.559285
O13   O     O_R   0.264640 0.942310 0.059470 -0.548674
C25   C     C_R   0.609260 0.113678 0.114267 0.812245
O14   O     O_R   0.444740 0.067040 0.942730 -0.521760
O15   O     O_R   0.269590 0.916730 0.914840 -0.533761
C26   C     C_R   0.613449 0.084024 0.919383 0.870203
O16   O     O_R   0.769230 0.083340 0.085210 -0.571120
O17   O     O_3   0.601340 0.950770 0.991070 -0.250096
V3    V     V_3+5 0.328370 0.009130 0.001660 1.192920
O18   O     O_R   0.939550 0.907490 0.913620 -0.511902
C27   C     C_R   0.105947 0.886363 0.885365 0.871845
O19   O     O_R   0.934640 0.932890 0.057220 -0.541957
C28   C     C_R   0.103024 0.915880 0.080548 0.810258
V4    V     V_3+5 0.827780 0.990750 0.998250 1.202927
O20   O     O_3   0.104690 0.049230 0.008930 -0.273006
N1    N     N_R   0.360252 0.880801 0.762762 0.081496
O21   O     O_R   0.526127 0.866550 0.730888 -0.299079
O22   O     O_R   0.301268 0.953823 0.782046 -0.383663
N2    N     N_R   0.933108 0.768926 0.806711 0.061889
O23   O     O_R   0.877276 0.739979 0.860174 -0.357054
O24   O     O_R   0.819195 0.762292 0.750467 -0.316404
H5    H     H_    0.911438 0.280594 0.318386 0.111815
N3    N     N_R   0.473495 0.333969 0.266610 0.075696
O25   O     O_R   0.300455 0.337650 0.293020 -0.370394
O26   O     O_R   0.499171 0.344464 0.201572 -0.348439

loop_
_geom_bond_atom_site_label_1
_geom_bond_atom_site_label_2
_geom_bond_distance
_ccdc_geom_bond_type
C5    N1    1.442554 S    
O5    V1    1.847076 S    
O16   V4    2.023477 S    
O2    C1    1.313134 A    
O8    C3    1.314372 A    
O13   V3    1.846908 S    
C15   C16   1.246257 T    
O1    V2    2.019490 S    
O9    C4    1.294419 A    
C23   H5    1.085983 S    
O7    V1    2.152166 S    
O15   V3    2.007908 S    
O13   C28   1.312350 A    
C21   C23   1.492879 S    
C7    C8    1.347268 D    
C24   N3    1.440647 S    
O9    V2    2.021242 S    
C1    O6    1.314100 A    
O17   V4    1.704000 S    
C18   C19   1.477598 S    
V4    O20   2.150631 S    
O14   C26   1.313081 A    
C5    C6    1.369775 D    
O7    V2    1.705289 S    
C6    C27   1.489538 S    
O4    V1    1.999483 S    
O3    V1    2.007890 S    
V1    O10   1.706074 S    
O19   C28   1.314364 A    
N3    O25   1.301151 A    
O5    C3    1.312362 A    
C25   O16   1.299375 A    
N1    O21   1.300495 A    
O3    C4    1.299112 A    
O12   C25   1.297303 A    
O14   V3    1.869662 S    
O12   V3    1.999499 S    
C22   H4    1.084168 S    
C5    C7    1.505625 S    
C3    C14   1.504770 S    
C19   C20   1.246187 T    
O6    V2    1.836107 S    
O18   V4    2.021131 S    
C9    C28   1.504812 S    
O19   V4    1.848890 S    
O11   C26   1.314091 A    
C16   C17   1.477644 S    
C22   C25   1.475859 S    
N1    O22   1.301821 A    
C9    C10   1.247009 T    
V2    O10   2.150578 S    
O2    V1    1.869697 S    
O15   C27   1.306660 A    
C23   C24   1.357128 D    
O18   C27   1.293959 A    
C10   C11   1.478864 S    
C4    C8    1.469394 S    
N2    O24   1.301276 A    
O17   V3    2.152136 S    
C6    N2    1.439997 S    
C13   C14   1.246993 T    
O4    C2    1.303973 A    
O11   V4    1.836584 S    
C12   C13   1.478853 S    
C20   C26   1.503363 S    
C21   H3    1.086003 S    
C11   C12   1.247019 T    
O1    C2    1.296401 A    
C2    C24   1.487326 S    
O8    V2    1.848983 S    
C17   C18   1.246256 T    
V3    O20   1.706068 S    
C1    C15   1.503549 S    
C21   C22   1.346607 D    
C8    H2    1.081352 S    
N2    O23   1.301291 A    
C7    H1    1.087116 S    
N3    O26   1.301565 A    
