data_mof_unit_pretest_1403.cif
_audit_creation_date              2012-12-10T19:14:27-0500
_audit_creation_method            fapswitch 2.2
_symmetry_space_group_name_H-M    P1
_symmetry_Int_Tables_number       1
_space_group_crystal_system       triclinic
_cell_length_a                    16.021987
_cell_length_b                    14.765752
_cell_length_c                    10.790792
_cell_angle_alpha                 88.664555
_cell_angle_beta                  89.935605
_cell_angle_gamma                 89.879357
_cell_volume                      2552.14928674

loop_
_atom_site_label
_atom_site_type_symbol
_atom_type_description
_atom_site_fract_x
_atom_site_fract_y
_atom_site_fract_z
_atom_type_partial_charge
C1    C     C_R   0.340993 0.500068 0.500170 0.857430
C2    C     C_R   0.658996 0.499898 0.499850 0.872460
C3    C     C_R   0.956563 0.418579 0.472084 0.184087
C4    C     C_R   0.044891 0.418660 0.476300 0.162919
C5    C     C_1   0.822637 0.499348 0.499250 -0.044707
C6    C     C_1   0.177366 0.500258 0.501307 -0.045463
C7    C     C_1   0.252210 0.500262 0.500671 -0.122051
C8    C     C_1   0.747780 0.499669 0.499681 -0.147747
C9    C     C_R   0.576046 0.951171 0.514853 0.121202
C10   C     C_R   0.424794 0.952006 0.479128 0.105961
C11   C     C_R   0.500369 0.902807 0.497768 -0.010753
C12   C     C_R   0.425172 0.049068 0.476538 0.009146
C13   C     C_R   0.575491 0.048107 0.518073 0.009393
C14   C     C_R   0.500209 0.097065 0.498101 -0.178842
C15   C     C_1   0.500232 0.802501 0.499092 0.124995
C16   C     C_1   0.500058 0.197511 0.499231 0.123958
C17   C     C_R   0.488293 0.501644 0.262818 0.874329
C18   C     C_R   0.500257 0.498719 0.739194 0.828574
C19   C     C_R   0.482839 0.675222 0.099821 -0.032035
C20   C     C_R   0.582698 0.637244 0.892151 -0.016833
C21   C     C_R   0.530455 0.745637 0.042957 0.132362
C22   C     C_R   0.580278 0.726781 0.937366 0.141788
C23   C     C_R   0.525781 0.571916 0.941111 0.009472
C24   C     C_R   0.492243 0.585082 0.058412 -0.023034
C25   C     C_R   0.470336 0.506404 0.128963 -0.064622
C26   C     C_R   0.497528 0.495775 0.875216 -0.097440
C27   C     C_R   0.443944 0.428039 0.067804 -0.055912
C28   C     C_R   0.454090 0.424468 0.938512 -0.102238
C29   C     C_R   0.955274 0.579561 0.527856 -0.066400
C30   C     C_R   0.043543 0.580711 0.525056 -0.068872
C31   C     C_R   0.912553 0.499203 0.498471 0.004007
C32   C     C_R   0.087387 0.499795 0.502079 -0.008164
Cu1   Cu    Cu3+1 0.500000 0.589220 0.500000 0.984914
Cu2   Cu    Cu3+1 0.500000 0.410780 0.500000 1.028250
N1    N     N_1   0.500000 0.276710 0.500000 -0.144829
N2    N     N_1   0.500000 0.723290 0.500000 -0.170731
O1    O     O_R   0.380310 0.575320 0.500020 -0.569926
O2    O     O_R   0.619690 0.575320 0.499980 -0.589178
O3    O     O_R   0.380310 0.424640 0.499960 -0.563865
O4    O     O_R   0.619690 0.424640 0.500040 -0.564312
O5    O     O_R   0.500000 0.575360 0.319640 -0.589118
O6    O     O_R   0.500000 0.575360 0.680360 -0.586634
O7    O     O_R   0.500000 0.424670 0.319580 -0.567975
O8    O     O_R   0.500000 0.424670 0.680420 -0.569298
C33   C     C_2   0.397079 0.355381 0.136178 0.412400
H1    H     H_    0.403544 0.285063 0.111452 0.130256
O9    O     O_2   0.348796 0.374100 0.219475 -0.532801
C34   C     C_2   0.414252 0.350199 0.869298 0.390106
H2    H     H_    0.369773 0.366310 0.796207 0.069303
O10   O     O_2   0.433356 0.271224 0.889959 -0.539847
C35   C     C_2   0.413105 0.698751 0.185734 0.442439
H3    H     H_    0.413019 0.761704 0.235351 0.066625
O11   O     O_2   0.353209 0.648455 0.199585 -0.530170
C36   C     C_2   0.653242 0.607409 0.811485 0.393617
H4    H     H_    0.690535 0.654842 0.757622 0.080962
O12   O     O_2   0.673658 0.527719 0.809044 -0.551740
C37   C     C_3   0.528674 0.839299 0.098279 -0.855183
H5    H     H_    0.540277 0.833629 0.199644 0.220039
H6    H     H_    0.577518 0.885554 0.061710 0.257211
H7    H     H_    0.466851 0.871371 0.081514 0.236655
C38   C     C_3   0.624967 0.803271 0.868771 -0.838369
H8    H     H_    0.641559 0.786776 0.772545 0.209062
H9    H     H_    0.582960 0.862789 0.857622 0.252924
H10   H     H_    0.682003 0.822555 0.920054 0.250662
C39   C     C_2   0.091318 0.666264 0.540990 0.494572
H11   H     H_    0.151690 0.664833 0.586481 0.055015
O13   O     O_2   0.065616 0.738390 0.498393 -0.491385
C40   C     C_2   0.906359 0.660424 0.565997 0.480549
H12   H     H_    0.846192 0.675237 0.524027 0.052360
O14   O     O_2   0.930915 0.708746 0.648642 -0.498277
C41   C     C_3   0.910243 0.332473 0.440337 -0.793648
H13   H     H_    0.923714 0.278793 0.511310 0.243742
H14   H     H_    0.841550 0.340130 0.436386 0.238209
H15   H     H_    0.930232 0.309580 0.347599 0.235511
C42   C     C_3   0.095860 0.333805 0.452228 -0.764785
H16   H     H_    0.058479 0.272577 0.434859 0.237946
H17   H     H_    0.136406 0.345637 0.369912 0.255186
H18   H     H_    0.135895 0.317899 0.533858 0.231702
C43   C     C_2   0.653682 0.100518 0.539080 0.400987
H19   H     H_    0.661112 0.167607 0.497399 0.075555
O15   O     O_2   0.709239 0.071420 0.606338 -0.523791
C44   C     C_2   0.347110 0.102480 0.454037 0.397256
H20   H     H_    0.339158 0.168110 0.495728 0.086477
O16   O     O_2   0.292291 0.075966 0.385437 -0.524918
C45   C     C_3   0.658288 0.900223 0.525447 -0.757840
H21   H     H_    0.653507 0.827170 0.505630 0.206230
H22   H     H_    0.703809 0.929026 0.457687 0.247500
H23   H     H_    0.683449 0.905555 0.620684 0.268939
C46   C     C_3   0.342954 0.901567 0.464673 -0.719636
H24   H     H_    0.347332 0.827984 0.485923 0.212729
H25   H     H_    0.295594 0.928609 0.529364 0.251456
H26   H     H_    0.320485 0.909338 0.367758 0.263942

loop_
_geom_bond_atom_site_label_1
_geom_bond_atom_site_label_2
_ccdc_geom_bond_type
C6    C32   S    
C13   C43   S    
C18   C26   S    
C33   H1    S    
Cu2   O4    S    
Cu1   O6    S    
C19   C21   A    
C18   O6    A    
C16   N1    T    
C37   H6    S    
Cu1   N2    S    
Cu2   N1    S    
C23   C26   A    
C38   H9    S    
C9    C13   A    
C4    C42   S    
C9    C45   S    
C11   C15   S    
C10   C46   S    
C40   H12   S    
C39   O13   D    
C23   C24   A    
C46   H25   S    
C1    O1    A    
C27   C33   S    
C34   O10   D    
C21   C22   A    
C33   O9    D    
C36   O12   D    
C45   H22   S    
C35   H3    S    
Cu2   O8    S    
C24   C25   A    
C20   C36   S    
C43   O15   D    
C37   H7    S    
C45   H21   S    
Cu1   O1    S    
Cu2   O3    S    
C35   O11   D    
C38   H10   S    
C3    C41   S    
C42   H16   S    
C17   O7    A    
C21   C37   S    
C29   C30   A    
C18   O8    A    
C41   H15   S    
C29   C40   S    
C42   H17   S    
C2    O2    A    
C20   C23   A    
Cu1   Cu2   S    
C12   C44   S    
C46   H26   S    
C3    C31   A    
C9    C11   A    
C4    C32   A    
C10   C12   A    
C34   H2    S    
C20   C22   A    
C44   H20   S    
C44   O16   D    
C14   C16   S    
C3    C4    A    
C15   N2    T    
C41   H14   S    
C45   H23   S    
C36   H4    S    
C28   C34   S    
C1    C7    S    
C2    C8    S    
Cu2   O7    S    
C12   C14   A    
C5    C8    T    
C6    C7    T    
C25   C27   A    
C26   C28   A    
Cu1   O2    S    
C17   C25   S    
C19   C24   A    
Cu1   O5    S    
C41   H13   S    
C29   C31   A    
C22   C38   S    
C30   C32   A    
C37   H5    S    
C19   C35   S    
C38   H8    S    
C42   H18   S    
C17   O5    A    
C30   C39   S    
C10   C11   A    
C1    O3    A    
C43   H19   S    
C2    O4    A    
C40   O14   D    
C39   H11   S    
C27   C28   A    
C46   H24   S    
C13   C14   A    
C5    C31   S    
