data_mof_unit_pretest_896.cif
_audit_creation_date              2012-12-11T16:51:07-0500
_audit_creation_method            fapswitch 2.2
_symmetry_space_group_name_H-M    P1
_symmetry_Int_Tables_number       1
_space_group_crystal_system       triclinic
_cell_length_a                    6.934861
_cell_length_b                    28.783544
_cell_length_c                    32.140354
_cell_angle_alpha                 100.898981
_cell_angle_beta                  89.666678
_cell_angle_gamma                 90.440208
_cell_volume                      6299.56104104

loop_
_atom_site_label
_atom_site_type_symbol
_atom_type_description
_atom_site_fract_x
_atom_site_fract_y
_atom_site_fract_z
_atom_type_partial_charge
O1    O     O_R   0.494350 0.453170 0.452520 -0.543563
O2    O     O_R   0.820980 0.455850 0.538220 -0.541316
O3    O     O_R   0.994300 0.546830 0.547480 -0.541638
C1    C     C_R   0.651507 0.446114 0.551912 0.766924
O4    O     O_R   0.823860 0.447590 0.452270 -0.540267
O5    O     O_R   0.997200 0.538510 0.460920 -0.537141
C2    C     C_R   0.654901 0.434612 0.436661 0.694307
O6    O     O_R   0.491440 0.461490 0.539080 -0.511661
O7    O     O_3   0.661790 0.529840 0.502940 -0.373947
V1    V     V_3+5 0.935470 0.494460 0.499450 1.446742
O8    O     O_R   0.327090 0.544150 0.461780 -0.542310
C3    C     C_R   0.158893 0.554231 0.448317 0.702674
O9    O     O_R   0.324210 0.552410 0.547730 -0.541264
C4    C     C_R   0.155227 0.565207 0.563435 0.713638
V2    V     V_3+5 0.435840 0.505540 0.500550 1.449986
O10   O     O_3   0.159650 0.470160 0.497060 -0.361125
C5    C     C_R   0.226145 0.877856 0.883181 -0.154214
H1    H     H_    0.358667 0.891289 0.898793 0.121572
C6    C     C_R   0.237679 0.841998 0.847233 -0.136587
H2    H     H_    0.378353 0.828520 0.836527 0.100664
C7    C     C_R   0.069927 0.823315 0.825776 0.095643
C8    C     C_R   0.890025 0.841260 0.841458 -0.132506
H3    H     H_    0.758058 0.828182 0.825410 0.100682
C9    C     C_R   0.878368 0.877072 0.877543 -0.155012
H4    H     H_    0.737600 0.890270 0.888494 0.117931
C10   C     C_R   0.046407 0.895949 0.898810 -0.056343
C11   C     C_R   0.946842 0.748340 0.779771 -0.144531
H5    H     H_    0.831926 0.746357 0.802329 0.114296
C12   C     C_R   0.959615 0.712740 0.743598 -0.146538
H6    H     H_    0.854071 0.684344 0.739324 0.112232
C13   C     C_R   0.108774 0.713271 0.713807 0.078420
C14   C     C_R   0.244980 0.750340 0.721229 -0.141539
H7    H     H_    0.359799 0.752367 0.698660 0.118578
C15   C     C_R   0.232255 0.785923 0.757408 -0.144027
H8    H     H_    0.337772 0.814326 0.761683 0.116316
C16   C     C_R   0.083006 0.785415 0.787176 0.079099
C17   C     C_R   0.301310 0.657799 0.659126 -0.134534
H9    H     H_    0.433468 0.670823 0.675115 0.100030
C18   C     C_R   0.312714 0.622349 0.622780 -0.170096
H10   H     H_    0.453439 0.609321 0.611620 0.116390
C19   C     C_R   0.144484 0.603530 0.601565 -0.058348
C20   C     C_R   0.964779 0.621255 0.617553 -0.152054
H11   H     H_    0.832087 0.607784 0.602039 0.119044
C21   C     C_R   0.953500 0.656809 0.653732 -0.133438
H12   H     H_    0.812826 0.670074 0.664663 0.100865
C22   C     C_R   0.121481 0.675500 0.675096 0.097467
C23   C     C_R   0.266390 0.675726 0.296201 0.549867
N1    N     N_R   0.122532 0.677139 0.325991 -0.570832
C24   C     C_R   0.965121 0.705696 0.325560 0.592878
C25   C     C_R   0.948137 0.734287 0.294688 -0.032631
C26   C     C_R   0.096369 0.733841 0.264502 -0.017026
C27   C     C_R   0.257332 0.704456 0.265235 -0.028391
C28   C     C_R   0.787122 0.763398 0.293407 -0.139343
C29   C     C_R   0.774177 0.791856 0.262758 -0.145920
C30   C     C_R   0.922100 0.792036 0.232660 -0.041149
C31   C     C_R   0.083711 0.762901 0.233556 -0.019178
C32   C     C_R   0.233076 0.762910 0.203698 -0.029039
C33   C     C_R   0.393193 0.733440 0.204742 -0.143206
C34   C     C_R   0.404858 0.704478 0.235027 -0.149199
C35   C     C_R   0.913630 0.821077 0.201944 0.594591
N2    N     N_R   0.061213 0.821183 0.173246 -0.557283
C36   C     C_R   0.218777 0.792582 0.173604 0.590402
O11   O     O_2   0.417599 0.646571 0.296452 -0.523178
O12   O     O_2   0.825816 0.706736 0.355124 -0.500025
H13   H     H_    0.670199 0.764230 0.316027 0.165434
H14   H     H_    0.647825 0.813751 0.262788 0.173250
O13   O     O_2   0.760462 0.849549 0.201303 -0.505908
O14   O     O_2   0.361078 0.792627 0.144804 -0.519259
H15   H     H_    0.510607 0.732784 0.182271 0.170545
H16   H     H_    0.530753 0.682408 0.234887 0.172535
C37   C     C_R   0.906651 0.849248 0.113173 -0.063192
H17   H     H_    0.797478 0.821887 0.111662 0.157081
C38   C     C_R   0.899931 0.880371 0.084581 -0.155897
H18   H     H_    0.785606 0.875956 0.061315 0.141443
C39   C     C_R   0.040420 0.916134 0.085282 -0.137058
C40   C     C_R   0.187679 0.920898 0.116584 -0.063713
C41   C     C_R   0.193457 0.888791 0.144702 -0.059532
H19   H     H_    0.303841 0.892306 0.168846 0.181557
C42   C     C_R   0.054148 0.852980 0.143288 0.311524
C43   C     C_R   0.275644 0.654637 0.389753 -0.015340
C44   C     C_R   0.285094 0.623306 0.418604 -0.170248
H20   H     H_    0.394146 0.628494 0.443089 0.165515
C45   C     C_R   0.150443 0.586333 0.417221 -0.087888
C46   C     C_R   0.006258 0.580487 0.386172 -0.188817
H21   H     H_    0.900512 0.552293 0.384410 0.126950
C47   C     C_R   0.999733 0.610156 0.356398 -0.050800
H22   H     H_    0.889447 0.604313 0.332215 0.146755
C48   C     C_R   0.133757 0.647238 0.357533 0.287140
C49   C     C_R   0.573400 0.224676 0.839160 0.630442
N3    N     N_R   0.585900 0.176720 0.826126 -0.528854
C50   C     C_R   0.607715 0.157007 0.784130 0.540926
C51   C     C_R   0.618453 0.185846 0.752822 -0.080281
C52   C     C_R   0.611730 0.235834 0.766431 0.001625
C53   C     C_R   0.601784 0.255705 0.810205 -0.175883
C54   C     C_R   0.631359 0.166913 0.708482 -0.048450
C55   C     C_R   0.622506 0.197381 0.679337 -0.115107
C56   C     C_R   0.616259 0.246487 0.692582 -0.046604
C57   C     C_R   0.615981 0.265993 0.736161 -0.070824
C58   C     C_R   0.618442 0.315616 0.749225 -0.178225
C59   C     C_R   0.607989 0.335338 0.792995 0.443982
C60   C     C_R   0.613141 0.305776 0.823473 -0.146488
C61   C     C_R   0.612815 0.276578 0.662764 0.574925
N4    N     N_R   0.624450 0.324674 0.675661 -0.540800
C62   C     C_R   0.635982 0.344248 0.717942 0.654705
O15   O     O_2   0.524168 0.241947 0.879763 -0.522567
O16   O     O_2   0.614868 0.109539 0.772986 -0.543570
H23   H     H_    0.629365 0.182477 0.645757 0.200970
O17   O     O_2   0.597332 0.257761 0.621140 -0.516029
O18   O     O_2   0.669207 0.391136 0.729565 -0.484969
C63   C     C_R   0.489632 0.391344 0.645782 0.424629
C64   C     C_R   0.499077 0.421963 0.616259 0.331140
C65   C     C_R   0.640226 0.414952 0.583757 -0.194689
C66   C     C_R   0.773927 0.378332 0.582324 -0.263736
H24   H     H_    0.884194 0.372431 0.557921 0.172717
C67   C     C_R   0.766461 0.348643 0.612035 -0.188736
H25   H     H_    0.872182 0.320846 0.610239 0.168364
C68   C     C_R   0.626857 0.355053 0.644369 0.216779
C69   C     C_R   0.429542 0.111324 0.854375 -0.181635
H26   H     H_    0.325228 0.107244 0.828999 0.157105
C70   C     C_R   0.416517 0.081903 0.884316 -0.219521
H27   H     H_    0.302925 0.055452 0.881354 0.139458
C71   C     C_R   0.550673 0.086018 0.917325 -0.103588
C72   C     C_R   0.696695 0.120519 0.920244 -0.272855
H28   H     H_    0.799472 0.124685 0.945969 0.146664
C73   C     C_R   0.709029 0.150657 0.890584 0.512705
C74   C     C_R   0.574079 0.146275 0.857307 0.283090
C75   C     C_R   0.688520 0.102293 0.132310 -0.145018
H29   H     H_    0.791582 0.073685 0.128416 0.136692
C76   C     C_R   0.698123 0.137796 0.168636 -0.233715
H30   H     H_    0.809551 0.135915 0.191713 0.135920
C77   C     C_R   0.569355 0.176011 0.174698 0.016437
C78   C     C_R   0.424024 0.176935 0.144154 0.487966
C79   C     C_R   0.413746 0.140673 0.107944 -0.240704
H31   H     H_    0.304112 0.142308 0.084398 0.140657
C80   C     C_R   0.545980 0.103242 0.101647 -0.110581
C81   C     C_R   0.583645 0.262120 0.209964 -0.176703
H32   H     H_    0.575474 0.271967 0.179131 0.165974
C82   C     C_R   0.591977 0.298008 0.246375 0.446329
C83   C     C_R   0.610202 0.286006 0.286693 -0.046753
C84   C     C_R   0.616633 0.238075 0.289899 -0.211773
H33   H     H_    0.629550 0.228228 0.320658 0.161339
C85   C     C_R   0.604331 0.202519 0.253609 -0.168217
H34   H     H_    0.606519 0.165853 0.257146 0.143178
C86   C     C_R   0.585879 0.214079 0.213229 0.033297
C87   C     C_R   0.785369 0.351208 0.333994 -0.015091
H35   H     H_    0.906731 0.345246 0.312303 0.115607
C88   C     C_R   0.799249 0.386594 0.370346 -0.126750
H36   H     H_    0.930825 0.407324 0.375793 0.121599
C89   C     C_R   0.643677 0.395829 0.398803 -0.103817
C90   C     C_R   0.474938 0.368277 0.390425 -0.140871
H37   H     H_    0.354187 0.375168 0.412214 0.164663
C91   C     C_R   0.460356 0.331864 0.354358 0.000041
C92   C     C_R   0.617682 0.323412 0.325635 0.038642
O19   O     O_R   0.699170 0.038480 0.960880 -0.538741
O20   O     O_R   0.366800 0.052460 0.047690 -0.546481
O21   O     O_R   0.193520 0.961530 0.039110 -0.544457
C93   C     C_R   0.535604 0.065186 0.063402 0.718964
O22   O     O_R   0.369630 0.044100 0.961740 -0.540207
O23   O     O_R   0.196370 0.953120 0.952550 -0.539962
C94   C     C_R   0.539112 0.054179 0.948393 0.729033
O24   O     O_R   0.696320 0.046890 0.047450 -0.536656
O25   O     O_3   0.528890 0.970170 0.997080 -0.368501
V3    V     V_3+5 0.255190 0.005530 0.000540 1.409278
O26   O     O_R   0.866460 0.947530 0.952310 -0.543030
C95   C     C_R   0.035493 0.934595 0.936702 0.693784
O27   O     O_R   0.863630 0.955880 0.038270 -0.529397
C96   C     C_R   0.031761 0.947033 0.052830 0.691765
V4    V     V_3+5 0.754830 0.994440 0.999470 1.425853
O28   O     O_3   0.031000 0.029830 0.002920 -0.367597
C97   C     C_2   0.329688 0.960505 0.122434 0.395380
H38   H     H_    0.300679 0.992602 0.110646 0.043033
O29   O     O_2   0.480534 0.958081 0.141317 -0.520624
C98   C     C_2   0.408816 0.695860 0.394554 0.513208
H39   H     H_    0.397507 0.721481 0.373931 0.054253
O30   O     O_2   0.532045 0.702129 0.422081 -0.502796
C99   C     C_2   0.662889 0.116069 0.690648 0.470177
H40   H     H_    0.760316 0.095207 0.705770 0.104573
O31   O     O_2   0.585089 0.097282 0.657679 -0.507215
O32   O     O_3   0.600873 0.383907 0.806457 -0.512627
C100  C     C_3   0.405799 0.397891 0.807290 -0.010278
H41   H     H_    0.398886 0.436668 0.818873 0.164970
H42   H     H_    0.318330 0.380604 0.829299 0.126922
H43   H     H_    0.340964 0.390245 0.775102 0.131025
C101  C     C_2   0.652052 0.327618 0.868534 0.537279
H44   H     H_    0.740375 0.309170 0.887853 0.095566
O33   O     O_2   0.588933 0.366407 0.884506 -0.498403
O34   O     O_3   0.352878 0.398951 0.677745 -0.533395
C102  C     C_3   0.185101 0.373457 0.663017 -0.203796
H45   H     H_    0.074937 0.379307 0.688605 0.183902
H46   H     H_    0.213075 0.334749 0.654891 0.128135
H47   H     H_    0.124789 0.386307 0.635319 0.165027
O35   O     O_3   0.364994 0.457697 0.618617 -0.543594
C103  C     C_3   0.438292 0.498544 0.645224 -0.167464
H48   H     H_    0.571202 0.511731 0.631573 0.094666
H49   H     H_    0.466818 0.492127 0.677712 0.171055
H50   H     H_    0.328536 0.526798 0.648058 0.150145
O36   O     O_3   0.845768 0.186396 0.895627 -0.535602
C104  C     C_3   0.021354 0.167220 0.878520 -0.229201
H51   H     H_    0.006740 0.151152 0.844319 0.127851
H52   H     H_    0.076475 0.140863 0.896672 0.140901
H53   H     H_    0.129625 0.196177 0.881050 0.203104
O37   O     O_3   0.297232 0.214410 0.148695 -0.558223
C105  C     C_3   0.118446 0.199732 0.162944 -0.244091
H54   H     H_    0.133692 0.186643 0.193230 0.133032
H55   H     H_    0.049946 0.172273 0.138377 0.147087
H56   H     H_    0.020504 0.230595 0.169080 0.177355
O38   O     O_3   0.589032 0.344948 0.242380 -0.554550
C106  C     C_3   0.395619 0.358069 0.238258 -0.211503
H57   H     H_    0.307673 0.353346 0.266289 0.114912
H58   H     H_    0.330282 0.337945 0.208650 0.154662
H59   H     H_    0.392166 0.396144 0.236406 0.176395
C107  C     C_2   0.279276 0.303708 0.346707 0.329917
H60   H     H_    0.256213 0.279440 0.316945 0.061853
O39   O     O_2   0.153037 0.307150 0.373743 -0.524760

loop_
_geom_bond_atom_site_label_1
_geom_bond_atom_site_label_2
_ccdc_geom_bond_type
O27   V4    S    
C105  H54   S    
C10   C95   S    
C52   C53   A    
C80   C93   S    
C11   C12   A    
C61   N4    A    
C38   H18   S    
C54   C55   A    
C1    O6    A    
C37   C42   A    
C44   H20   S    
N3    C50   A    
C72   H28   S    
C18   C19   A    
C7    C16   S    
C28   C29   A    
C31   C32   A    
C76   C77   A    
C105  H55   S    
C29   H14   S    
C17   H9    S    
C73   C74   A    
O21   V3    S    
C102  H47   S    
C5    C10   A    
C8    C9    A    
O26   C95   A    
C88   C89   A    
C46   C47   A    
C43   C98   S    
O25   V3    S    
C23   O11   S    
C62   O18   S    
C81   C86   A    
C47   C48   A    
C72   C73   A    
O20   C93   A    
C97   H38   S    
C83   C92   S    
C67   H25   S    
C57   C58   A    
C101  H44   S    
C102  H46   S    
C15   H8    S    
C19   C20   A    
C49   C53   A    
C63   C64   A    
C59   C60   A    
C39   C40   A    
C88   H36   S    
C44   C45   A    
C2    C89   S    
O8    V2    S    
C64   C65   A    
C53   C60   A    
C100  H42   S    
C106  H57   S    
C67   C68   A    
C13   C22   S    
C75   H29   S    
N1    C48   S    
C9    H4    S    
C61   O17   S    
C104  H51   S    
O1    V2    S    
O9    C4    A    
C28   H13   S    
O7    V1    S    
C15   C16   A    
C56   C61   A    
C100  H43   S    
C87   C92   A    
N2    C36   A    
C41   C42   A    
C58   C62   A    
C91   C107  S    
C73   O36   S    
C64   O35   S    
C24   O12   S    
C98   H39   S    
C7    C8    A    
C69   H26   S    
O22   C94   A    
C38   C39   A    
C50   O16   S    
O19   V4    S    
N4    C68   S    
C20   C21   A    
C104  H53   S    
C63   C68   A    
C65   C66   A    
C87   C88   A    
C21   C22   A    
C56   C57   A    
C40   C41   A    
C98   O30   D    
C17   C18   A    
C105  H56   S    
C63   O34   S    
C25   C28   A    
C85   H34   S    
O37   C105  S    
C26   C27   A    
C23   N1    A    
O26   V4    S    
C46   H21   S    
C35   O13   S    
C81   C82   A    
C50   C51   A    
O4    C2    A    
C47   H22   S    
C43   C44   A    
O21   C96   A    
C103  H49   S    
C33   C34   A    
C41   H19   S    
C51   C54   A    
O38   C106  S    
C3    C45   S    
C102  H45   S    
C14   C15   A    
O2    C1    A    
C54   C99   S    
C75   C76   A    
O19   C94   A    
C12   H6    S    
C27   C34   A    
C13   C14   A    
C82   O38   S    
C103  H50   S    
C55   C56   A    
C30   C31   A    
C5    H1    S    
N3    C74   S    
C25   C26   A    
C84   H33   S    
C40   C97   S    
O3    C4    A    
C60   C101  S    
O22   V3    S    
C4    C19   S    
O25   V4    S    
C106  H58   S    
N1    C24   A    
C55   H23   S    
C107  O39   D    
C103  H48   S    
O6    V2    S    
O9    V2    S    
C79   H31   S    
O23   V3    S    
C45   C46   A    
C20   H11   S    
C32   C36   A    
C77   C78   A    
O2    V1    S    
C93   O24   A    
C87   H35   S    
C18   H10   S    
C85   C86   A    
C70   H27   S    
C70   C71   A    
C37   C38   A    
C66   H24   S    
C29   C30   A    
V4    O28   S    
C6    C7    A    
O1    C2    A    
C8    H3    S    
C21   H12   S    
C26   C31   A    
C75   C80   A    
C81   H32   S    
O5    V1    S    
C104  H52   S    
C83   C84   A    
C33   H15   S    
C71   C72   A    
C23   C27   A    
C84   C85   A    
C11   C16   A    
C78   O37   S    
C90   H37   S    
C58   C59   A    
C36   O14   S    
O20   V3    S    
O35   C103  S    
C6    H2    S    
C99   H40   S    
C49   N3    A    
O4    V1    S    
C12   C13   A    
O3    V1    S    
V1    O10   S    
C89   C90   A    
C14   H7    S    
O5    C3    A    
C9    C10   A    
C32   C33   A    
O27   C96   A    
C97   O29   D    
N2    C42   S    
C106  H59   S    
C99   O31   D    
C51   C52   A    
C5    C6    A    
C101  O33   D    
C78   C79   A    
C90   C91   A    
O7    V2    S    
O36   C104  S    
V3    O28   S    
C69   C70   A    
O24   V4    S    
C1    C65   S    
C82   C83   A    
C77   C86   S    
C34   H16   S    
O32   C100  S    
O23   C95   A    
O34   C102  S    
C37   H17   S    
C107  H60   S    
C43   C48   A    
C24   C25   A    
C49   O15   S    
N4    C62   A    
C79   C80   A    
C71   C94   S    
C76   H30   S    
C35   N2    A    
C39   C96   S    
C91   C92   A    
C69   C74   A    
C66   C67   A    
C17   C22   A    
C30   C35   A    
C59   O32   S    
C52   C57   A    
C100  H41   S    
V2    O10   S    
O8    C3    A    
C11   H5    S    
