data_mof_unit_pretest_1796.cif
_audit_creation_date              2012-12-10T17:46:58-0500
_audit_creation_method            fapswitch 2.2
_symmetry_space_group_name_H-M    P1
_symmetry_Int_Tables_number       1
_space_group_crystal_system       triclinic
_cell_length_a                    17.757128
_cell_length_b                    17.797986
_cell_length_c                    19.436455
_cell_angle_alpha                 99.90789
_cell_angle_beta                  76.382595
_cell_angle_gamma                 115.554205
_cell_volume                      5368.59915049

loop_
_atom_site_label
_atom_site_type_symbol
_atom_type_description
_atom_site_fract_x
_atom_site_fract_y
_atom_site_fract_z
_atom_type_partial_charge
Br1   Br    Br    0.543048 0.701478 0.115126 -0.404792
Br2   Br    Br    0.575268 0.091627 0.720286 -0.295905
Br3   Br    Br    0.717710 0.020175 0.655923 -0.250332
Br4   Br    Br    0.500900 0.341957 0.210304 -0.403232
Br5   Br    Br    0.841209 0.301826 0.654083 -0.331142
Br6   Br    Br    0.999666 0.333853 0.723616 -0.320286
Br7   Br    Br    0.650522 0.600361 0.962454 -0.370848
C1    C     C_R   0.456011 0.280483 0.468081 0.793215
C2    C     C_2   0.471820 0.491496 0.986997 -0.301864
C3    C     C_2   0.540853 0.537484 0.016430 0.340151
C4    C     C_R   0.542535 0.719869 0.532947 0.832942
C5    C     C_R   0.517828 0.515789 0.235920 -0.124980
C6    C     C_R   0.554893 0.808367 0.552758 -0.181826
C7    C     C_R   0.434953 0.191076 0.455644 -0.148575
C8    C     C_R   0.619082 0.944803 0.615751 0.318961
C9    C     C_R   0.610747 0.862196 0.598492 0.365838
C10   C     C_R   0.509845 0.839579 0.524233 -0.249822
C11   C     C_R   0.511742 0.920159 0.545326 0.013743
C12   C     C_R   0.473444 0.486670 0.910593 -0.027993
C13   C     C_R   0.563742 0.971911 0.595232 -0.150896
C14   C     C_R   0.464846 0.951112 0.516529 0.036568
C15   C     C_R   0.477208 0.036156 0.532766 -0.003954
C16   C     C_R   0.723390 0.547578 0.468272 0.793460
C17   C     C_R   0.515832 0.080882 0.591959 0.351683
C18   C     C_R   0.556005 0.047138 0.624694 0.221450
C19   C     C_R   0.405409 0.899929 0.472381 -0.142691
C20   C     C_R   0.366071 0.932976 0.439850 -0.160423
C21   C     C_R   0.387380 0.018515 0.447182 0.031279
C22   C     C_R   0.445119 0.071546 0.492039 0.142916
C23   C     C_R   0.454457 0.409828 0.868027 0.483885
C24   C     C_R   0.351825 0.051514 0.409462 -0.156649
C25   C     C_R   0.373873 0.137294 0.413986 0.464679
C26   C     C_R   0.471709 0.158392 0.491881 -0.205103
C27   C     C_R   0.185403 0.437609 0.551916 -0.145573
C28   C     C_R   0.276195 0.452836 0.532015 0.872618
C29   C     C_R   0.813913 0.568421 0.458291 -0.034982
C30   C     C_R   0.051099 0.382125 0.633840 0.360103
C31   C     C_R   0.135768 0.393979 0.611309 -0.315467
C32   C     C_R   0.149835 0.471641 0.515298 0.515992
C33   C     C_R   0.069478 0.473760 0.545468 -0.073702
C34   C     C_R   0.461169 0.409198 0.794602 0.436646
C35   C     C_R   0.014863 0.418124 0.598116 -0.104606
C36   C     C_R   0.042316 0.528871 0.523557 -0.138761
C37   C     C_R   0.954560 0.509972 0.535324 -0.082355
C38   C     C_R   0.898845 0.451893 0.585803 0.406716
C39   C     C_R   0.927742 0.402858 0.613544 0.204083
C40   C     C_R   0.510837 0.510203 0.311592 0.849496
C41   C     C_R   0.101283 0.607025 0.497514 0.453567
C42   C     C_R   0.072964 0.656653 0.470047 0.305201
C43   C     C_R   0.986420 0.626550 0.465455 -0.027048
C44   C     C_R   0.926567 0.552764 0.498183 0.080943
C45   C     C_R   0.526841 0.457702 0.113652 -0.228644
C46   C     C_R   0.958372 0.668814 0.428843 -0.123446
C47   C     C_R   0.872544 0.641395 0.427461 -0.166782
C48   C     C_R   0.841077 0.522427 0.490061 -0.110490
C49   C     C_R   0.489393 0.488158 0.688534 0.824872
C50   C     C_R   0.484276 0.484919 0.764256 -0.220133
C51   C     C_R   0.501136 0.559715 0.807432 -0.223790
C52   C     C_R   0.495005 0.560450 0.879879 -0.099571
C53   C     C_R   0.518041 0.448791 0.185235 0.290108
C54   C     C_R   0.525605 0.590241 0.213753 -0.256437
C55   C     C_R   0.534717 0.598981 0.141990 0.327981
C56   C     C_R   0.535368 0.532321 0.091786 -0.024282
H1    H     H_    0.518025 0.617837 0.785062 0.190509
H2    H     H_    0.525414 0.642045 0.252256 0.196426
H3    H     H_    0.001959 0.723675 0.401417 0.167922
H4    H     H_    0.526029 0.405882 0.074802 0.196365
H5    H     H_    0.413260 0.452698 0.019734 0.164256
H6    H     H_    0.507761 0.619111 0.912273 0.211558
H7    H     H_    0.357938 0.226828 0.381845 0.335595
H8    H     H_    0.620776 0.791696 0.656092 0.351915
H9    H     H_    0.552103 0.189012 0.645834 0.376615
H10   H     H_    0.104350 0.773630 0.461097 0.345079
H11   H     H_    0.150211 0.493674 0.420672 0.337500
H12   H     H_    0.522904 0.202512 0.518047 0.192199
H13   H     H_    0.798690 0.429284 0.660940 0.381194
H14   H     H_    0.219486 0.691006 0.485318 0.383362
H15   H     H_    0.435234 0.343030 0.945962 0.338226
H16   H     H_    0.476483 0.344278 0.704934 0.338679
H17   H     H_    0.320671 0.891488 0.406760 0.179260
H18   H     H_    0.473903 0.799401 0.484780 0.189462
H19   H     H_    0.385609 0.833279 0.463347 0.153750
H20   H     H_    0.306452 0.010402 0.376216 0.180579
H21   H     H_    0.794092 0.462679 0.507251 0.190572
H22   H     H_    0.851729 0.677471 0.402747 0.146930
H23   H     H_    0.163423 0.369861 0.641499 0.223254
O1    O     O_3   0.500000 0.500000 0.500000 -0.514492
O2    O     O_R   0.548260 0.471800 0.330740 -0.601953
O3    O     O_R   0.433390 0.433420 0.655640 -0.626837
O4    O     O_R   0.470210 0.546620 0.357990 -0.634285
O5    O     O_R   0.548140 0.548160 0.655640 -0.627148
O6    O     O_3   0.334681 0.165084 0.376740 -0.720724
O7    O     O_3   0.660469 0.836705 0.624985 -0.677482
O8    O     O_3   0.502715 0.150960 0.623575 -0.725186
O9    O     O_3   0.131456 0.733588 0.447621 -0.781044
O10   O     O_3   0.192046 0.496921 0.448249 -0.700486
O11   O     O_3   0.818756 0.449893 0.612949 -0.766434
O12   O     O_R   0.690590 0.583040 0.521630 -0.611540
O13   O     O_3   0.184593 0.637473 0.507197 -0.713102
O14   O     O_3   0.432896 0.334551 0.894792 -0.664646
O15   O     O_3   0.447340 0.333828 0.754605 -0.650705
O16   O     O_R   0.304570 0.412130 0.559980 -0.654546
O17   O     O_R   0.515630 0.331630 0.426410 -0.614504
O18   O     O_R   0.489210 0.673200 0.491990 -0.641204
O19   O     O_R   0.414390 0.306840 0.521640 -0.614606
O20   O     O_R   0.580770 0.688330 0.559970 -0.625717
O21   O     O_R   0.677090 0.493090 0.426400 -0.629225
O22   O     O_R   0.327750 0.511740 0.491990 -0.566247
Zn1   Zn    Zn3+2 0.578510 0.578520 0.558300 1.013940
Zn2   Zn    Zn3+2 0.559220 0.450000 0.422240 1.026944
Zn3   Zn    Zn3+2 0.447700 0.556900 0.461160 1.022548
Zn4   Zn    Zn3+2 0.414570 0.414580 0.558300 1.015763

loop_
_geom_bond_atom_site_label_1
_geom_bond_atom_site_label_2
_ccdc_geom_bond_type
Br7   C3    S    
C14   C19   A    
C15   C22   A    
C22   C26   A    
C11   C14   A    
O16   Zn4   S    
C3    C56   S    
C28   O16   A    
Br1   C55   S    
C7    C26   A    
O1    Zn2   S    
C46   C47   A    
O3    Zn4   S    
C9    O7    S    
C55   C56   A    
C31   H23   S    
O17   Zn2   S    
C21   C22   A    
O1    Zn3   S    
C13   C18   A    
C8    C9    A    
C23   O14   S    
C24   H20   S    
C49   C50   S    
C11   C13   A    
C27   C28   S    
C35   C39   A    
C30   C35   A    
C28   O22   A    
C45   C53   A    
C26   H12   S    
C33   C36   A    
C23   C34   A    
C4    O18   A    
C2    C3    D    
C44   C48   A    
O2    Zn2   S    
C33   C35   A    
C19   H19   S    
O12   Zn1   S    
C14   C15   A    
C1    O19   A    
O4    Zn3   S    
C5    C40   S    
C2    C12   S    
C43   C44   A    
C49   O5    A    
C51   H1    S    
C8    C13   A    
C43   C46   A    
C27   C32   A    
H11   O10   S    
C17   C18   A    
C20   H17   S    
C32   C33   A    
O1    Zn4   S    
C12   C52   A    
H13   O11   S    
C38   C39   A    
C36   C37   A    
C30   C31   A    
C17   O8    S    
C47   H22   S    
C24   C25   A    
C16   O21   A    
Br4   C53   S    
C4    O20   A    
C10   C11   A    
C19   C20   A    
Br6   C30   S    
C42   O9    S    
C46   H3    S    
C45   H4    S    
C52   H6    S    
O1    Zn1   S    
C37   C44   A    
C49   O3    A    
O19   Zn4   S    
C16   C29   S    
H15   O14   S    
C40   O4    A    
C15   C17   A    
H10   O9    S    
Br3   C8    S    
C37   C38   A    
C36   C41   A    
C41   O13   S    
C41   C42   A    
C1    C7    S    
C27   C31   A    
C21   C24   A    
H7    O6    S    
C7    C25   A    
C45   C56   A    
O18   Zn3   S    
H8    O7    S    
Br5   C39   S    
O22   Zn3   S    
C6    C10   A    
C40   O2    A    
O5    Zn1   S    
C51   C52   A    
C2    H5    S    
H9    O8    S    
C29   C48   A    
C38   O11   S    
C5    C54   A    
C4    C6    S    
C50   C51   A    
C25   O6    S    
O21   Zn2   S    
C34   O15   S    
H14   O13   S    
Br2   C18   S    
C10   H18   S    
C54   C55   A    
C1    O17   A    
C32   O10   S    
C29   C47   A    
C34   C50   A    
C5    C53   A    
C54   H2    S    
C16   O12   A    
C42   C43   A    
C6    C9    A    
C20   C21   A    
H16   O15   S    
C48   H21   S    
C12   C23   A    
O20   Zn1   S    
