data_mof_unit_pretest_963.cif
_audit_creation_date              2012-10-26T20:06:12-0400
_audit_creation_method            fapswitch 2.2
_symmetry_space_group_name_H-M    P1
_symmetry_Int_Tables_number       1
_space_group_crystal_system       triclinic
_cell_length_a                    9.522775
_cell_length_b                    10.833628
_cell_length_c                    13.472255
_cell_angle_alpha                 90.104191
_cell_angle_beta                  73.16545
_cell_angle_gamma                 90.013156
_cell_volume                      1330.31579628

loop_
_atom_site_label
_atom_site_type_symbol
_atom_type_description
_atom_site_fract_x
_atom_site_fract_y
_atom_site_fract_z
_atom_type_partial_charge
C1    C     C_R   0.499979 0.737916 0.500155 0.557378
C2    C     C_R   0.384393 0.451747 0.810390 -0.001334
C3    C     C_R   0.627172 0.936203 0.501111 -0.138153
C4    C     C_R   0.423767 0.485007 0.698891 0.544369
C5    C     C_R   0.627185 0.063910 0.501019 -0.139426
C6    C     C_R   0.499940 0.128235 0.500103 0.020738
C7    C     C_R   0.372650 0.063823 0.499362 -0.138728
C8    C     C_R   0.372631 0.936118 0.499468 -0.138437
C9    C     C_R   0.499923 0.871783 0.500267 0.019933
C10   C     C_R   0.897848 0.572344 0.567936 0.000859
C11   C     C_R   0.046600 0.572161 0.568026 0.004848
C12   C     C_R   0.446489 0.438726 0.974826 0.035814
C13   C     C_R   0.102136 0.427620 0.432066 0.009552
C14   C     C_R   0.953313 0.427626 0.432116 0.006380
C15   C     C_R   0.499979 0.262082 0.499958 0.546186
C16   C     C_R   0.577810 0.500355 0.300252 0.550657
C17   C     C_R   0.808300 0.500099 0.021927 -0.137733
C18   C     C_R   0.622020 0.495090 0.187031 0.000116
C19   C     C_R   0.236311 0.432766 0.864526 -0.137482
C20   C     C_R   0.194875 0.408823 0.970417 -0.145171
C21   C     C_R   0.296677 0.416929 0.025991 -0.117962
C22   C     C_R   0.492289 0.439479 0.864837 0.028856
C23   C     C_R   0.553078 0.458466 0.028654 0.030632
C24   C     C_R   0.703250 0.469551 0.971917 0.053010
C25   C     C_R   0.747721 0.446610 0.866077 -0.150185
C26   C     C_R   0.644132 0.426005 0.814206 -0.125055
C27   C     C_R   0.515011 0.472447 0.136620 -0.133275
C28   C     C_R   0.768635 0.510962 0.129206 -0.139439
Cu1   Cu    Cu3+1 0.359340 0.499980 0.500000 0.932585
Cu2   Cu    Cu3+1 0.640660 0.500020 0.500000 0.925662
H1    H     H_    0.852269 0.531870 0.166701 0.128558
H2    H     H_    0.402440 0.466897 0.183251 0.118545
H3    H     H_    0.152526 0.434157 0.824682 0.122550
H4    H     H_    0.255283 0.401587 0.108338 0.093806
H5    H     H_    0.082487 0.386147 0.010891 0.115289
H6    H     H_    0.687137 0.394892 0.735282 0.159621
H7    H     H_    0.726655 0.888213 0.501836 0.129047
H8    H     H_    0.920785 0.516428 0.977403 0.105131
H9    H     H_    0.726686 0.111972 0.501660 0.127117
H10   H     H_    0.273166 0.111814 0.498640 0.127770
H11   H     H_    0.273115 0.888065 0.498853 0.129171
H12   H     H_    0.819609 0.630366 0.622371 0.116132
H13   H     H_    0.080383 0.630037 0.622495 0.109438
H14   H     H_    0.180347 0.369487 0.377709 0.103952
H15   H     H_    0.919446 0.369564 0.377794 0.106961
H16   H     H_    0.863220 0.443375 0.823222 0.100711
N1    N     N_R   0.147940 0.499970 0.499970 -0.223987
N2    N     N_R   0.852060 0.500060 0.499990 -0.229240
O1    O     O_R   0.381250 0.680340 0.500010 -0.503552
O2    O     O_R   0.618820 0.680370 0.500010 -0.502959
O3    O     O_R   0.323240 0.499950 0.650980 -0.504997
O4    O     O_R   0.560810 0.499980 0.650980 -0.517799
O5    O     O_R   0.381180 0.319630 0.499990 -0.509913
O6    O     O_R   0.618750 0.319660 0.499990 -0.514378
O7    O     O_R   0.439190 0.500020 0.349020 -0.508504
O8    O     O_R   0.676760 0.500050 0.349020 -0.503665

loop_
_geom_bond_atom_site_label_1
_geom_bond_atom_site_label_2
_ccdc_geom_bond_type
C2    C22   A    
C2    C4    S    
C23   C24   A    
C16   O8    A    
C24   C25   A    
C11   H13   S    
C6    C7    A    
C3    C9    A    
C23   C27   A    
C10   H12   S    
C25   H16   S    
C1    O2    A    
C11   N1    A    
C19   C20   A    
C7    H10   S    
Cu2   O2    S    
C16   O7    A    
C1    C9    S    
C7    C8    A    
Cu1   O1    S    
C13   C14   A    
C20   C21   A    
Cu2   O6    S    
C12   C23   A    
Cu1   Cu2   S    
Cu1   O5    S    
C4    O4    A    
C15   O5    A    
Cu2   N2    S    
C25   C26   A    
Cu1   N1    S    
C14   H15   S    
C17   H8    S    
C5    H9    S    
C13   H14   S    
C10   N2    A    
C5    C6    A    
C6    C15   S    
C17   C24   A    
C10   C11   A    
C4    O3    A    
C22   C26   A    
C15   O6    A    
C12   C22   A    
C18   C28   A    
C8    H11   S    
C3    H7    S    
C16   C18   S    
Cu1   O3    S    
C26   H6    S    
C13   N1    A    
Cu2   O4    S    
C14   N2    A    
C21   H4    S    
Cu1   O7    S    
C27   H2    S    
C2    C19   A    
C17   C28   A    
Cu2   O8    S    
C12   C21   A    
C20   H5    S    
C28   H1    S    
C18   C27   A    
C19   H3    S    
C8    C9    A    
C3    C5    A    
C1    O1    A    
