data_mof_unit_pretest_393.cif
_audit_creation_date              2012-12-11T17:36:10-0500
_audit_creation_method            fapswitch 2.2
_symmetry_space_group_name_H-M    P1
_symmetry_Int_Tables_number       1
_space_group_crystal_system       triclinic
_cell_length_a                    25.865923
_cell_length_b                    6.904438
_cell_length_c                    21.698173
_cell_angle_alpha                 90.0
_cell_angle_beta                  96.027976
_cell_angle_gamma                 90.000168
_cell_volume                      3853.64310238

loop_
_atom_site_label
_atom_site_type_symbol
_atom_type_description
_atom_site_fract_x
_atom_site_fract_y
_atom_site_fract_z
_atom_type_partial_charge
O1    O     O_R   0.208650 0.594520 0.175450 -0.534857
O2    O     O_R   0.791350 0.405480 0.824550 -0.534857
O3    O     O_R   0.291350 0.094520 0.324550 -0.534856
O4    O     O_R   0.708650 0.905480 0.675450 -0.534857
O5    O     O_R   0.192980 0.260780 0.300160 -0.540895
O6    O     O_R   0.807020 0.739220 0.699840 -0.540896
O7    O     O_R   0.307020 0.760780 0.199840 -0.540895
O8    O     O_R   0.692980 0.239220 0.800160 -0.540895
C1    C     C_R   0.178802 0.432873 0.318434 0.681886
C2    C     C_R   0.821198 0.567127 0.681566 0.681887
C3    C     C_R   0.321198 0.932873 0.181566 0.681886
C4    C     C_R   0.678802 0.067127 0.818434 0.681886
O9    O     O_R   0.202550 0.264660 0.174420 -0.536745
O10   O     O_R   0.797450 0.735340 0.825580 -0.536745
O11   O     O_R   0.297450 0.764660 0.325580 -0.536745
O12   O     O_R   0.702550 0.235340 0.674420 -0.536745
O13   O     O_R   0.300990 0.096480 0.197920 -0.539267
O14   O     O_R   0.699010 0.903520 0.802080 -0.539266
O15   O     O_R   0.199010 0.596480 0.302080 -0.539266
O16   O     O_R   0.800990 0.403520 0.697920 -0.539267
C5    C     C_R   0.191073 0.433346 0.151143 0.698393
C6    C     C_R   0.808927 0.566654 0.848857 0.698392
C7    C     C_R   0.308927 0.933347 0.348857 0.698393
C8    C     C_R   0.691073 0.066653 0.651143 0.698393
O17   O     O_3   0.282290 0.427760 0.257860 -0.364555
O18   O     O_3   0.717710 0.572240 0.742140 -0.364555
O19   O     O_3   0.217710 0.927760 0.242140 -0.364556
O20   O     O_3   0.782290 0.072240 0.757860 -0.364556
V1    V     V_3+5 0.244010 0.152080 0.248540 1.412720
V2    V     V_3+5 0.755990 0.847920 0.751460 1.412720
V3    V     V_3+5 0.255990 0.652080 0.251460 1.412720
V4    V     V_3+5 0.744010 0.347920 0.748540 1.412720
C9    C     C_R   0.657399 0.060942 0.591967 -0.044404
C10   C     C_R   0.342600 0.939057 0.408033 -0.044404
C11   C     C_R   0.842601 0.560948 0.908033 -0.044408
C12   C     C_R   0.157399 0.439051 0.091967 -0.044408
C13   C     C_R   0.646535 0.121626 0.481683 -0.159815
C14   C     C_R   0.353465 0.878374 0.518317 -0.159815
C15   C     C_R   0.853469 0.621704 0.018313 -0.159818
C16   C     C_R   0.146531 0.378296 0.981687 -0.159818
C17   C     C_R   0.678194 0.113139 0.537563 -0.167175
C18   C     C_R   0.321806 0.886861 0.462437 -0.167175
C19   C     C_R   0.821809 0.613193 0.962434 -0.167173
C20   C     C_R   0.178191 0.386807 0.037566 -0.167172
C21   C     C_R   0.604097 0.017762 0.590202 -0.214431
C22   C     C_R   0.395903 0.982238 0.409798 -0.214431
C23   C     C_R   0.895901 0.517741 0.909800 -0.214433
C24   C     C_R   0.104099 0.482258 0.090200 -0.214433
C25   C     C_R   0.570550 0.028595 0.533742 0.086956
C26   C     C_R   0.429450 0.971405 0.466258 0.086956
C27   C     C_R   0.929450 0.528599 0.966258 0.086955
C28   C     C_R   0.070550 0.471401 0.033742 0.086956
C29   C     C_R   0.593171 0.081280 0.479305 0.138739
C30   C     C_R   0.406829 0.918720 0.520695 0.138739
C31   C     C_R   0.906832 0.581335 0.020692 0.138738
C32   C     C_R   0.093168 0.418665 0.979308 0.138738
C33   C     C_R   0.515552 0.991719 0.529360 0.057753
C34   C     C_R   0.484448 0.008281 0.470640 0.057753
C35   C     C_R   0.984447 0.491703 0.970641 0.057754
C36   C     C_R   0.015553 0.508297 0.029359 0.057754
C37   C     C_R   0.509409 0.060562 0.418298 -0.186444
C38   C     C_R   0.490591 0.939438 0.581702 -0.186444
C39   C     C_R   0.990595 0.560630 0.081697 -0.186446
C40   C     C_R   0.009405 0.439370 0.918303 -0.186446
C41   C     C_R   0.562497 0.095754 0.422711 -0.200583
C42   C     C_R   0.437503 0.904246 0.577289 -0.200583
C43   C     C_R   0.937508 0.595839 0.077284 -0.200584
C44   C     C_R   0.062492 0.404161 0.922716 -0.200584
H1    H     H_    0.280927 0.851286 0.461520 0.106732
H2    H     H_    0.719073 0.148714 0.538480 0.106732
H3    H     H_    0.219068 0.351209 0.038484 0.106735
H4    H     H_    0.780932 0.648791 0.961516 0.106735
H5    H     H_    0.663767 0.162582 0.440154 0.114132
H6    H     H_    0.336233 0.837417 0.559846 0.114132
H7    H     H_    0.836240 0.662699 0.059839 0.114133
H8    H     H_    0.163760 0.337301 0.940161 0.114133
H9    H     H_    0.488962 0.076301 0.372761 0.124176
H10   H     H_    0.511038 0.923699 0.627239 0.124176
H11   H     H_    0.011043 0.576398 0.127232 0.124177
H12   H     H_    0.988957 0.423602 0.872768 0.124177
C45   C     C_R   0.427260 0.793658 0.079269 -0.134427
C46   C     C_R   0.572740 0.206342 0.920731 -0.134427
C47   C     C_R   0.072740 0.293657 0.420731 -0.134427
C48   C     C_R   0.927260 0.706342 0.579269 -0.134426
H13   H     H_    0.445414 0.663117 0.064123 0.104658
H14   H     H_    0.554586 0.336883 0.935877 0.104658
H15   H     H_    0.054586 0.163116 0.435877 0.104658
H16   H     H_    0.945414 0.836884 0.564123 0.104658
C49   C     C_R   0.388008 0.778703 0.119230 -0.170282
C50   C     C_R   0.611992 0.221297 0.880770 -0.170282
C51   C     C_R   0.111992 0.278703 0.380770 -0.170282
C52   C     C_R   0.888008 0.721297 0.619230 -0.170282
H17   H     H_    0.376783 0.636322 0.133928 0.118325
H18   H     H_    0.623217 0.363678 0.866072 0.118325
H19   H     H_    0.123217 0.136321 0.366073 0.118324
H20   H     H_    0.876783 0.863679 0.633927 0.118324
C53   C     C_R   0.363542 0.945821 0.139682 -0.057048
C54   C     C_R   0.636458 0.054179 0.860318 -0.057049
C55   C     C_R   0.136458 0.445821 0.360318 -0.057049
C56   C     C_R   0.863542 0.554179 0.639682 -0.057048
C57   C     C_R   0.379647 0.127810 0.119020 -0.169106
C58   C     C_R   0.620353 0.872189 0.880980 -0.169105
C59   C     C_R   0.120353 0.627810 0.380980 -0.169105
C60   C     C_R   0.879647 0.372190 0.619020 -0.169104
H21   H     H_    0.361903 0.260031 0.133433 0.122035
H22   H     H_    0.638097 0.739969 0.866567 0.122035
H23   H     H_    0.138097 0.760030 0.366567 0.122034
H24   H     H_    0.861903 0.239969 0.633433 0.122035
C61   C     C_R   0.418778 0.142264 0.079192 -0.139044
C62   C     C_R   0.581222 0.857736 0.920808 -0.139044
C63   C     C_R   0.081221 0.642263 0.420807 -0.139044
C64   C     C_R   0.918779 0.357737 0.579192 -0.139044
H25   H     H_    0.430204 0.284020 0.064047 0.104870
H26   H     H_    0.569796 0.715980 0.935953 0.104869
H27   H     H_    0.069796 0.784020 0.435952 0.104870
H28   H     H_    0.930204 0.215980 0.564048 0.104870
C65   C     C_R   0.442816 0.975595 0.058967 0.131028
C66   C     C_R   0.557184 0.024405 0.941032 0.131028
C67   C     C_R   0.057184 0.475594 0.441032 0.131028
C68   C     C_R   0.942816 0.524406 0.558967 0.131028
C69   C     C_1   0.483173 0.992335 0.017380 -0.061426
C70   C     C_1   0.516827 0.007665 0.982620 -0.061426
C71   C     C_1   0.016827 0.492335 0.482620 -0.061426
C72   C     C_1   0.983173 0.507665 0.517380 -0.061426
H29   H     H_    0.579755 0.136059 0.381117 0.123893
H30   H     H_    0.420245 0.863940 0.618883 0.123893
H31   H     H_    0.920252 0.636185 0.118875 0.123894
H32   H     H_    0.079748 0.363814 0.881125 0.123894
H33   H     H_    0.409867 0.019051 0.366242 0.094209
H34   H     H_    0.590133 0.980949 0.633758 0.094210
H35   H     H_    0.090136 0.519106 0.133754 0.094213
H36   H     H_    0.909864 0.480894 0.866246 0.094213

loop_
_geom_bond_atom_site_label_1
_geom_bond_atom_site_label_2
_ccdc_geom_bond_type
O17   V3    S    
C55   C59   A    
O1    C5    A    
C19   H4    S    
O19   V1    S    
C9    C21   A    
O3    C7    A    
C10   C18   A    
O1    V3    S    
O15   V3    S    
C62   C66   A    
C22   H33   S    
C61   C65   A    
C71   C72   T    
C5    C12   S    
C39   H11   S    
O7    C3    A    
C6    C11   S    
C35   C40   A    
C26   C30   A    
C36   C39   A    
C40   C44   A    
O2    V4    S    
O9    V1    S    
C14   C18   A    
C21   H34   S    
C13   C17   A    
O16   V4    S    
O4    C8    A    
C57   C61   A    
C45   C65   A    
C60   H24   S    
C52   H20   S    
O13   V1    S    
C20   H3    S    
C59   C63   A    
C66   C70   S    
C47   C67   A    
O3    V1    S    
C65   C69   S    
C13   H5    S    
C28   C36   A    
C68   C72   S    
C1    O15   A    
C56   C60   A    
C15   C31   A    
C2    O16   A    
C16   C32   A    
C54   C58   A    
O2    C6    A    
C24   H35   S    
C58   H22   S    
C10   C22   A    
C15   H7    S    
C11   C19   A    
C62   H26   S    
C16   C20   A    
C4    C54   S    
C48   C68   A    
C13   C29   A    
C34   C37   A    
O11   C7    A    
C11   C23   A    
C35   C36   A    
O12   C8    A    
O17   V1    S    
C40   H12   S    
O10   V2    S    
C50   H18   S    
O5    V1    S    
C57   H21   S    
C39   C43   A    
O7    V3    S    
C38   C42   A    
O19   V3    S    
C26   C34   A    
C33   C38   A    
C37   H9    S    
C60   C64   A    
O18   V4    S    
C15   C19   A    
C46   H14   S    
C18   H1    S    
O4    V2    S    
C16   H8    S    
C49   C53   A    
O8    V4    S    
O5    C1    A    
C43   H31   S    
C63   H27   S    
C31   C43   A    
C14   C30   A    
O20   V4    S    
O8    C4    A    
C7    C10   S    
C21   C25   A    
O9    C5    A    
C2    C56   S    
C69   C70   T    
O14   V2    S    
C63   C67   A    
O6    V2    S    
O18   V2    S    
C67   C71   S    
C58   C62   A    
C27   C35   A    
C46   C66   A    
C64   H28   S    
C29   C41   A    
C52   C56   A    
C64   C68   A    
C14   H6    S    
C44   H32   S    
C3    O13   A    
C38   H10   S    
C48   H16   S    
C47   H15   S    
O6    C2    A    
C25   C33   A    
C23   C27   A    
O11   V3    S    
C30   C42   A    
C61   H25   S    
O12   V4    S    
C47   C51   A    
C22   C26   A    
C8    C9    S    
C46   C50   A    
C23   H36   S    
C3    C53   S    
C9    C17   A    
O10   C6    A    
O20   V2    S    
C45   C49   A    
C32   C44   A    
C33   C34   A    
C25   C29   A    
C12   C24   A    
C27   C31   A    
C37   C41   A    
C49   H17   S    
C45   H13   S    
C12   C20   A    
C51   H19   S    
C42   H30   S    
C24   C28   A    
C1    C55   S    
C4    O14   A    
C59   H23   S    
C48   C52   A    
C51   C55   A    
C50   C54   A    
C53   C57   A    
C28   C32   A    
C41   H29   S    
C17   H2    S    
