data_mof_unit_pretest_1273.cif
_audit_creation_date              2012-10-26T20:35:51-0400
_audit_creation_method            fapswitch 2.2
_symmetry_space_group_name_H-M    P1
_symmetry_Int_Tables_number       1
_space_group_crystal_system       triclinic
_cell_length_a                    8.728109
_cell_length_b                    15.79767
_cell_length_c                    17.042686
_cell_angle_alpha                 95.823497
_cell_angle_beta                  90.747042
_cell_angle_gamma                 84.485817
_cell_volume                      2326.9515539

loop_
_atom_site_label
_atom_site_type_symbol
_atom_type_description
_atom_site_fract_x
_atom_site_fract_y
_atom_site_fract_z
_atom_type_partial_charge
C1    C     C_R   0.501224 0.489957 0.348368 0.576372
C2    C     C_R   0.373653 0.161418 0.435714 -0.140111
C3    C     C_R   0.626128 0.748910 0.555815 0.023269
C4    C     C_R   0.382073 0.250165 0.439599 0.023005
C5    C     C_R   0.205413 0.521894 0.500690 0.541917
C6    C     C_R   0.794586 0.478093 0.498976 0.549707
C7    C     C_2   0.040497 0.533945 0.501161 -0.165941
C8    C     C_2   0.959486 0.466048 0.498162 -0.164300
C9    C     C_R   0.503693 0.484372 0.261717 -0.021861
C10   C     C_R   0.483716 0.515210 0.737205 -0.025000
C11   C     C_R   0.582911 0.540532 0.220998 0.097932
C12   C     C_R   0.497018 0.510179 0.651330 0.568802
C13   C     C_R   0.384771 0.464400 0.772180 0.129674
C14   C     C_R   0.589971 0.528479 0.137754 0.142338
C15   C     C_R   0.382974 0.464658 0.854921 0.131114
C16   C     C_R   0.504390 0.466463 0.096080 0.240148
C17   C     C_R   0.470984 0.521815 0.901989 0.219876
C18   C     C_R   0.426851 0.411188 0.137232 0.107141
C19   C     C_R   0.560563 0.576447 0.866150 0.124646
C20   C     C_R   0.429718 0.419274 0.219405 -0.192415
C21   C     C_R   0.569273 0.571225 0.784117 -0.200549
C22   C     C_3   0.139314 0.470423 0.705257 -0.281693
C23   C     C_R   0.417561 0.758653 0.466276 0.007954
C24   C     C_3   0.576660 0.688320 0.275347 -0.278982
C25   C     C_3   0.340697 0.324800 0.893218 -0.286247
C26   C     C_3   0.830819 0.531299 0.070415 -0.288848
C27   C     C_3   0.178453 0.371868 0.093509 -0.316050
C28   C     C_3   0.561966 0.710950 0.946989 -0.288390
C29   C     C_R   0.573915 0.242359 0.538520 0.022843
C30   C     C_R   0.422621 0.847548 0.468038 -0.128210
C31   C     C_R   0.569422 0.153382 0.536401 -0.120582
C32   C     C_R   0.533096 0.888579 0.515360 0.207781
C33   C     C_R   0.467744 0.111336 0.484140 0.207796
C34   C     C_R   0.634895 0.837614 0.559485 -0.140836
Cu1   Cu    Cu3+1 0.492520 0.415770 0.496210 0.946217
Cu2   Cu    Cu3+1 0.507480 0.584230 0.503790 0.938373
H1    H     H_    0.985595 0.598946 0.504177 0.126453
H2    H     H_    0.293856 0.131737 0.394908 0.100427
H3    H     H_    0.705510 0.710569 0.590158 0.117992
H4    H     H_    0.308832 0.287834 0.401856 0.117919
H5    H     H_    0.255486 0.361132 0.741771 0.264744
H6    H     H_    0.071655 0.491685 0.759709 0.140225
H7    H     H_    0.068001 0.432011 0.663626 0.139272
H8    H     H_    0.167192 0.527266 0.676832 0.150372
H9    H     H_    0.774099 0.607546 0.245574 0.243171
H10   H     H_    0.565643 0.718206 0.219146 0.109307
H11   H     H_    0.637344 0.730430 0.318953 0.150725
H12   H     H_    0.014416 0.401056 0.495242 0.126779
H13   H     H_    0.459385 0.683345 0.297820 0.160967
H14   H     H_    0.231307 0.441345 0.941400 0.270112
H15   H     H_    0.384966 0.295147 0.835123 0.131487
H16   H     H_    0.246726 0.288280 0.911113 0.139188
H17   H     H_    0.435726 0.319294 0.936694 0.190850
H18   H     H_    0.695323 0.638251 0.118976 0.245427
H19   H     H_    0.813038 0.470628 0.033958 0.172358
H20   H     H_    0.893211 0.571402 0.034211 0.147433
H21   H     H_    0.902352 0.517178 0.122761 0.109897
H22   H     H_    0.367691 0.288317 0.114477 0.242977
H23   H     H_    0.369197 0.375924 0.250312 0.130640
H24   H     H_    0.122666 0.324064 0.053393 0.137431
H25   H     H_    0.153925 0.435531 0.071407 0.150489
H26   H     H_    0.128439 0.373913 0.153401 0.132087
H27   H     H_    0.748485 0.646487 0.886023 0.234903
H28   H     H_    0.638455 0.749690 0.985325 0.129683
H29   H     H_    0.466271 0.695559 0.983752 0.175377
H30   H     H_    0.514461 0.749372 0.899575 0.126143
H31   H     H_    0.643048 0.611202 0.756827 0.120000
H32   H     H_    0.652031 0.274027 0.578805 0.123923
H33   H     H_    0.332354 0.727848 0.429957 0.116586
H34   H     H_    0.644554 0.118363 0.575402 0.119854
H35   H     H_    0.340648 0.883336 0.432839 0.119188
H36   H     H_    0.721143 0.866554 0.596683 0.100962
N1    N     N_2   0.497808 0.457826 0.012594 -0.221465
N2    N     N_2   0.684832 0.576564 0.095221 -0.469971
N3    N     N_2   0.342595 0.348165 0.095693 -0.511674
N4    N     N_2   0.649230 0.633754 0.912995 -0.480830
N5    N     N_2   0.469559 0.527914 0.985376 -0.204747
N6    N     N_R   0.518730 0.710760 0.509500 -0.219520
N7    N     N_R   0.481270 0.289240 0.490500 -0.220650
N8    N     N_2   0.545927 0.979175 0.521043 -0.244303
N9    N     N_2   0.455107 0.020715 0.478335 -0.245101
N10   N     N_2   0.278486 0.418902 0.724028 -0.479976
N11   N     N_2   0.662793 0.604937 0.264044 -0.494009
N12   N     N_2   0.282143 0.413432 0.889769 -0.514327
O1    O     O_R   0.493000 0.421040 0.382520 -0.513163
O2    O     O_R   0.507000 0.578960 0.617480 -0.511225
O3    O     O_R   0.505640 0.563310 0.388930 -0.471257
O4    O     O_R   0.494360 0.436690 0.611070 -0.471418
O5    O     O_R   0.269980 0.445280 0.497530 -0.496958
O6    O     O_R   0.730020 0.554720 0.502470 -0.499984
O7    O     O_R   0.282610 0.587550 0.503940 -0.507575
O8    O     O_R   0.717390 0.412450 0.496060 -0.504086

loop_
_geom_bond_atom_site_label_1
_geom_bond_atom_site_label_2
_ccdc_geom_bond_type
C1    O3    A    
C18   N3    S    
C23   H33   S    
C28   H30   S    
Cu1   Cu2   S    
C26   H19   S    
C25   H15   S    
C30   H35   S    
H14   N12   S    
C7    C8    D    
C22   N10   S    
C14   N2    S    
C19   N4    S    
C19   C21   A    
C24   N11   S    
C25   H17   S    
C27   H24   S    
C11   C14   A    
H27   N4    S    
C27   H25   S    
C17   C19   A    
H18   N2    S    
C31   H34   S    
C22   H8    S    
C4    H4    S    
C25   N12   S    
C31   C33   A    
Cu1   O8    S    
C3    H3    S    
Cu2   O3    S    
C21   H31   S    
H9    N11   S    
C27   N3    S    
H22   N3    S    
C10   C21   A    
C1    O1    A    
C12   O4    A    
C16   N1    S    
C23   C30   A    
C1    C9    S    
C4    N7    A    
C5    C7    S    
C6    C8    S    
C3    C34   A    
Cu2   O2    S    
C6    O6    A    
C13   N10   S    
C32   C34   A    
C2    C4    A    
C8    H12   S    
C27   H26   S    
C32   N8    S    
C29   H32   S    
Cu1   O4    S    
C2    H2    S    
C9    C20   A    
C22   H7    S    
C29   N7    A    
C17   N5    S    
C7    H1    S    
C20   H23   S    
C9    C11   A    
C5    O7    A    
C10   C12   S    
C28   H28   S    
Cu2   O7    S    
Cu1   O5    S    
C13   C15   A    
C14   C16   A    
C28   N4    S    
C34   H36   S    
C2    C33   A    
Cu2   O6    S    
C24   H13   S    
C15   C17   A    
C24   H11   S    
N8    N9    D    
C10   C13   A    
C26   H20   S    
C15   N12   S    
C12   O2    A    
C11   N11   S    
C28   H29   S    
C25   H16   S    
C24   H10   S    
C29   C31   A    
Cu2   N6    S    
C30   C32   A    
Cu1   O1    S    
C22   H6    S    
C6    O8    A    
H5    N10   S    
Cu1   N7    S    
C26   N2    S    
C18   C20   A    
C23   N6    A    
C26   H21   S    
C16   C18   A    
N1    N5    D    
C3    N6    A    
C33   N9    S    
C5    O5    A    
