data_mof_unit_pretest_1548.cif
_audit_creation_date              2012-12-10T19:39:52-0500
_audit_creation_method            fapswitch 2.2
_symmetry_space_group_name_H-M    P1
_symmetry_Int_Tables_number       1
_space_group_crystal_system       triclinic
_cell_length_a                    30.492212
_cell_length_b                    21.660978
_cell_length_c                    21.641163
_cell_angle_alpha                 89.494152
_cell_angle_beta                  134.780162
_cell_angle_gamma                 90.017093
_cell_volume                      10145.1978624

loop_
_atom_site_label
_atom_site_type_symbol
_atom_type_description
_atom_site_fract_x
_atom_site_fract_y
_atom_site_fract_z
_atom_type_partial_charge
C1    C     C_R   0.120032 0.499328 0.119689 0.976221
C2    C     C_R   0.620104 0.999126 0.119785 0.931764
C3    C     C_3   0.932063 0.785580 0.032517 -0.473694
C4    C     C_3   0.904753 0.215097 0.981392 -0.447640
C5    C     C_3   0.601147 0.283424 0.167700 -0.416087
C6    C     C_3   0.591339 0.713292 0.170569 -0.450174
C7    C     C_3   0.933021 0.714453 0.034068 -0.412630
C8    C     C_3   0.906227 0.286213 0.984283 -0.429393
C9    C     C_3   0.600242 0.212289 0.167616 -0.451253
C10   C     C_3   0.590175 0.784439 0.170516 -0.431246
C11   C     C_R   0.217048 0.549921 0.238875 -0.128717
C12   C     C_R   0.717308 0.045588 0.246884 -0.156064
C13   C     C_R   0.185765 0.499929 0.183449 -0.185235
C14   C     C_R   0.685969 0.000017 0.183834 -0.171582
C15   C     C_R   0.218331 0.454547 0.182871 0.646229
C16   C     C_R   0.718704 0.959639 0.177513 0.623168
C17   C     C_R   0.282657 0.454902 0.246991 -0.287294
C18   C     C_R   0.783016 0.959947 0.241878 -0.293079
C19   C     C_R   0.313812 0.501570 0.309528 -0.199771
C20   C     C_R   0.814010 0.001742 0.310481 -0.186969
C21   C     C_R   0.280525 0.551108 0.300762 0.027320
C22   C     C_R   0.780819 0.047074 0.308892 0.021080
C23   C     C_3   0.283244 0.579514 0.366067 1.158602
C24   C     C_3   0.783786 0.065132 0.378226 1.151474
C25   C     C_3   0.213132 0.578155 0.297585 -0.519959
C26   C     C_3   0.713761 0.063139 0.309907 -0.515934
C27   C     C_R   0.000700 0.620041 0.000385 0.918801
C28   C     C_R   0.000226 0.380097 0.000400 0.974836
C29   C     C_R   0.499971 0.119857 0.999686 0.932771
C30   C     C_R   0.499601 0.880084 0.999801 0.961073
C31   C     C_R   0.780981 0.544670 0.808302 -0.140025
C32   C     C_R   0.280642 0.038490 0.816216 -0.134206
C33   C     C_R   0.814981 0.497740 0.815512 -0.147990
C34   C     C_R   0.314690 0.997541 0.814942 -0.167477
C35   C     C_R   0.783550 0.448829 0.756141 0.604446
C36   C     C_R   0.283023 0.955023 0.746377 0.645496
C37   C     C_R   0.718792 0.448866 0.691510 -0.271664
C38   C     C_R   0.218272 0.955056 0.681901 -0.277162
C39   C     C_R   0.685843 0.498511 0.685247 -0.197861
C40   C     C_R   0.185547 0.998691 0.684806 -0.188643
C41   C     C_R   0.719045 0.545607 0.744896 0.001118
C42   C     C_R   0.218694 0.039854 0.752837 -0.012668
C43   C     C_3   0.714744 0.606027 0.772711 1.221947
C44   C     C_3   0.214225 0.092291 0.792204 1.211151
C45   C     C_3   0.785847 0.605187 0.844772 -0.586350
C46   C     C_3   0.285352 0.091216 0.864332 -0.529573
C47   C     C_R   0.000348 0.000342 0.880316 0.915622
C48   C     C_R   0.500337 0.500441 0.880246 0.916779
C49   C     C_R   0.000250 0.880150 0.000269 0.915504
C50   C     C_R   0.999829 0.120002 0.999592 0.916547
C51   C     C_R   0.500134 0.379962 0.999666 0.913642
C52   C     C_R   0.499703 0.619983 0.999640 0.918603
C53   C     C_R   0.880196 0.499785 0.880408 0.938890
C54   C     C_R   0.380098 0.999556 0.880278 0.976853
C55   C     C_R   0.999798 0.000399 0.119824 0.872999
C56   C     C_R   0.499791 0.500217 0.119690 0.873172
C57   C     C_R   0.499989 0.500296 0.380024 0.855863
C58   C     C_R   0.999718 0.000285 0.379885 0.853853
C59   C     C_R   0.379773 0.500301 0.379541 0.939160
C60   C     C_R   0.879854 0.000315 0.379751 0.937520
C61   C     C_R   0.500454 0.499695 0.620662 0.955099
C62   C     C_R   0.000745 0.999724 0.621020 0.959812
C63   C     C_R   0.620070 0.499695 0.619867 0.928465
C64   C     C_R   0.119967 0.999722 0.619948 0.929777
C65   C     C_R   0.980892 0.948752 0.763778 0.098311
C66   C     C_R   0.474368 0.451720 0.757032 0.097184
C67   C     C_R   0.002369 0.999780 0.816720 -0.171767
C68   C     C_R   0.502287 0.499504 0.816475 -0.173186
C69   C     C_R   0.034062 0.046355 0.816400 -0.282482
C70   C     C_R   0.539037 0.542140 0.821032 -0.285850
C71   C     C_R   0.539497 0.542238 0.757177 0.665612
C72   C     C_R   0.034965 0.046351 0.752986 0.690433
C73   C     C_R   0.504506 0.498294 0.690682 -0.246311
C74   C     C_R   0.005454 0.998528 0.691793 -0.252580
C75   C     C_R   0.971040 0.719210 0.014590 0.050724
C76   C     C_R   0.959710 0.281224 0.994406 0.057134
C77   C     C_R   0.543605 0.218044 0.072738 0.036332
C78   C     C_R   0.537829 0.780441 0.074189 0.052834
C79   C     C_R   0.475992 0.450766 0.695230 0.062707
C80   C     C_R   0.982807 0.947916 0.702284 0.072590
C81   C     C_3   0.411311 0.427631 0.626791 -0.416878
C82   C     C_3   0.921659 0.916730 0.637337 -0.412378
C83   C     C_3   0.919536 0.917943 0.705372 -0.451648
C84   C     C_3   0.409521 0.428944 0.695157 -0.438140
C85   C     C_R   0.954056 0.973383 0.174124 0.124670
C86   C     C_R   0.462042 0.463342 0.181661 0.115905
C87   C     C_R   0.999834 0.002203 0.185568 -0.106119
C88   C     C_R   0.499641 0.502104 0.184998 -0.087325
C89   C     C_R   0.047328 0.032506 0.264802 -0.196160
C90   C     C_R   0.538748 0.542635 0.255559 -0.206759
C91   C     C_R   0.538511 0.542939 0.320092 -0.197528
C92   C     C_R   0.047165 0.032755 0.329379 -0.201938
C93   C     C_R   0.500621 0.501336 0.315090 -0.083774
C94   C     C_R   0.000563 0.001208 0.315411 -0.074515
C95   C     C_R   0.463459 0.462072 0.244969 0.120962
C96   C     C_R   0.955138 0.971885 0.237119 0.114133
C97   C     C_3   0.417153 0.411835 0.204136 -0.458722
C98   C     C_3   0.897680 0.934981 0.185441 -0.480952
C99   C     C_R   0.002026 0.685762 0.000665 -0.243922
C100  C     C_R   0.001848 0.314649 0.001925 -0.239656
C101  C     C_R   0.498812 0.185228 0.997575 -0.222354
C102  C     C_R   0.497471 0.814641 0.997813 -0.240970
C103  C     C_3   0.896616 0.936177 0.113173 -0.448733
C104  C     C_3   0.416055 0.412818 0.131820 -0.459583
C105  C     C_R   0.034185 0.718521 0.986043 0.634391
C106  C     C_R   0.044950 0.282320 0.008120 0.651335
C107  C     C_R   0.452784 0.218079 0.919053 0.616173
C108  C     C_R   0.455396 0.783045 0.918217 0.652027
C109  C     C_R   0.034228 0.783261 0.986609 -0.300382
C110  C     C_R   0.044609 0.217635 0.007727 -0.290414
C111  C     C_R   0.452922 0.282798 0.919362 -0.291060
C112  C     C_R   0.455408 0.718325 0.918484 -0.290173
C113  C     C_R   0.001012 0.814875 0.999540 -0.174696
C114  C     C_R   0.000070 0.185593 0.998455 -0.187407
C115  C     C_R   0.499900 0.314324 0.997632 -0.189827
C116  C     C_R   0.498622 0.685546 0.997911 -0.187077
C117  C     C_R   0.969640 0.781046 0.012451 0.125587
C118  C     C_R   0.957999 0.219400 0.990881 0.128944
C119  C     C_R   0.544781 0.279892 0.072529 0.120282
C120  C     C_R   0.539248 0.718600 0.074142 0.130311
H1    H     H_    0.191295 0.624775 0.274365 0.210933
H2    H     H_    0.193955 0.546078 0.313937 0.210699
H3    H     H_    0.691782 0.109123 0.294606 0.193421
H4    H     H_    0.695071 0.025608 0.321167 0.211638
H5    H     H_    0.694757 0.411021 0.646124 0.194320
H6    H     H_    0.194002 0.922059 0.629586 0.193336
H7    H     H_    0.922488 0.871249 0.729878 0.206515
H8    H     H_    0.882420 0.948414 0.687025 0.229948
H9    H     H_    0.406566 0.382255 0.713706 0.206275
H10   H     H_    0.376544 0.463786 0.680996 0.229568
H11   H     H_    0.059380 0.808423 0.976283 0.188151
H12   H     H_    0.078297 0.192877 0.013599 0.199271
H13   H     H_    0.417022 0.307955 0.859041 0.193223
H14   H     H_    0.422778 0.694117 0.857305 0.199825
H15   H     H_    0.568354 0.574442 0.374041 0.168973
H16   H     H_    0.083470 0.056391 0.389991 0.165187
H17   H     H_    0.857272 0.963096 0.054361 0.218351
H18   H     H_    0.904943 0.890242 0.100489 0.197696
H19   H     H_    0.371361 0.429046 0.067620 0.226104
H20   H     H_    0.435952 0.370455 0.130509 0.202433
H21   H     H_    0.885570 0.806026 0.977662 0.218278
H22   H     H_    0.862823 0.196418 0.917211 0.219580
H23   H     H_    0.591379 0.304291 0.203763 0.198556
H24   H     H_    0.577039 0.691496 0.200766 0.193716
H25   H     H_    0.887116 0.693762 0.979801 0.202135
H26   H     H_    0.865418 0.308620 0.921540 0.230267
H27   H     H_    0.590583 0.191981 0.204339 0.213995
H28   H     H_    0.575650 0.803815 0.201265 0.212865
H29   H     H_    0.959375 0.694080 0.099601 0.214756
H30   H     H_    0.919642 0.305085 0.043219 0.209881
H31   H     H_    0.639297 0.190961 0.180676 0.209044
H32   H     H_    0.631692 0.805824 0.190505 0.216571
O1    O     O_R   0.091640 0.500000 0.143360 -0.639187
O2    O     O_R   0.591640 0.000000 0.143360 -0.639000
O3    O     O_R   0.051710 0.908380 0.051700 -0.611713
O4    O     O_R   0.051710 0.091620 0.051700 -0.622432
O5    O     O_R   0.551710 0.408380 0.051700 -0.619756
O6    O     O_R   0.551710 0.591620 0.051700 -0.621599
O7    O     O_R   0.948260 0.000000 0.039800 -0.626669
O8    O     O_R   0.448260 0.500000 0.039800 -0.615582
O9    O     O_R   0.051700 0.000000 0.143310 -0.618284
O10   O     O_R   0.551700 0.500000 0.143310 -0.625674
O11   O     O_R   0.499940 0.551750 0.408310 -0.624000
O12   O     O_R   0.499940 0.448250 0.408310 -0.629035
O13   O     O_R   0.999940 0.051750 0.408310 -0.626068
O14   O     O_R   0.999940 0.948250 0.408310 -0.626347
O15   O     O_R   0.408380 0.551720 0.408370 -0.593584
O16   O     O_R   0.408380 0.448280 0.408370 -0.630422
O17   O     O_R   0.908380 0.051720 0.408370 -0.602819
O18   O     O_R   0.908380 0.948280 0.408370 -0.626963
O19   O     O_R   0.500050 0.551670 0.591650 -0.537847
O20   O     O_R   0.500050 0.448330 0.591650 -0.634950
O21   O     O_R   0.000050 0.051670 0.591650 -0.536532
O22   O     O_R   0.000050 0.948330 0.591650 -0.632996
O23   O     O_R   0.591610 0.551710 0.591590 -0.571669
O24   O     O_R   0.591610 0.448290 0.591590 -0.635047
O25   O     O_R   0.091610 0.051710 0.591590 -0.575012
O26   O     O_R   0.091610 0.948290 0.591590 -0.628818
O27   O     O_R   0.091570 0.500000 0.039860 -0.567152
O28   O     O_R   0.591570 0.000000 0.039860 -0.590856
O29   O     O_R   0.000030 0.591610 0.051750 -0.637032
O30   O     O_R   0.000030 0.408390 0.051750 -0.640768
O31   O     O_R   0.500030 0.091610 0.051750 -0.634062
O32   O     O_R   0.500030 0.908390 0.051750 -0.640481
O33   O     O_R   0.999970 0.591600 0.948260 -0.577069
O34   O     O_R   0.999970 0.408400 0.948260 -0.557705
O35   O     O_R   0.499970 0.091600 0.948260 -0.595237
O36   O     O_R   0.499970 0.908400 0.948260 -0.555255
O37   O     O_R   0.908410 0.500000 0.960140 -0.632839
O38   O     O_R   0.408410 1.000000 0.960140 -0.633080
O39   O     O_R   0.908350 0.500000 0.856640 -0.601059
O40   O     O_R   0.408350 1.000000 0.856640 -0.562505
O41   O     O_R   0.948280 1.000000 0.856590 -0.618842
O42   O     O_R   0.448280 0.500000 0.856590 -0.621916
O43   O     O_R   0.051720 1.000000 0.960100 -0.616367
O44   O     O_R   0.551720 0.500000 0.960100 -0.617656
O45   O     O_R   0.948270 0.908380 0.948190 -0.622226
O46   O     O_R   0.948270 0.091620 0.948190 -0.617503
O47   O     O_R   0.448270 0.408380 0.948190 -0.622435
O48   O     O_R   0.448270 0.591620 0.948190 -0.617386
Zn1   Zn    Zn3+2 0.000030 0.500000 0.069110 0.979347
Zn2   Zn    Zn3+2 0.500030 1.000000 0.069110 0.980967
Zn3   Zn    Zn3+2 0.999950 0.500000 0.930890 1.120131
Zn4   Zn    Zn3+2 0.499950 0.000000 0.930890 1.118719
Zn5   Zn    Zn3+2 0.930930 1.000000 0.930840 0.976716
Zn6   Zn    Zn3+2 0.430930 0.500000 0.930840 0.992511
Zn7   Zn    Zn3+2 0.069060 1.000000 0.069060 1.005637
Zn8   Zn    Zn3+2 0.569060 0.500000 0.069060 0.980169
Zn9   Zn    Zn3+2 0.500000 0.569060 0.499990 1.128246
Zn10  Zn    Zn3+2 0.500000 0.430940 0.499990 0.982664
Zn11  Zn    Zn3+2 0.000000 0.069060 0.499990 1.115362
Zn12  Zn    Zn3+2 0.000000 0.930940 0.499990 0.990621
F1    F     F_    0.066463 0.688415 0.973601 -0.637126
F2    F     F_    0.087513 0.312902 0.015971 -0.587270
F3    F     F_    0.407528 0.187938 0.843503 -0.650063
F4    F     F_    0.414258 0.814370 0.841326 -0.587718
F5    F     F_    0.815129 0.401362 0.761310 -0.663719
F6    F     F_    0.314319 0.913413 0.742555 -0.595273
F7    F     F_    0.687731 0.601488 0.803679 -0.608395
F8    F     F_    0.689906 0.652504 0.711221 -0.647205
F9    F     F_    0.187128 0.075939 0.820932 -0.623721
F10   F     F_    0.189313 0.145178 0.740791 -0.625291
H33   H     H_    0.805748 0.600444 0.911691 0.212406
H34   H     H_    0.807279 0.640908 0.835931 0.195050
H35   H     H_    0.305123 0.076954 0.929333 0.212127
H36   H     H_    0.306901 0.132303 0.863699 0.220268
H37   H     H_    0.055160 0.084018 0.862087 0.188540
H38   H     H_    0.564549 0.577027 0.871002 0.192400
F11   F     F_    0.572221 0.585955 0.758859 -0.580073
F12   F     F_    0.062498 0.093702 0.749741 -0.574313
H39   H     H_    0.409464 0.380172 0.605961 0.213182
H40   H     H_    0.379291 0.461541 0.572842 0.256343
H41   H     H_    0.925898 0.869328 0.622658 0.211646
H42   H     H_    0.885684 0.946280 0.579375 0.259194
H43   H     H_    0.083831 0.056155 0.276358 0.174820
H44   H     H_    0.568652 0.573996 0.260230 0.156806
H45   H     H_    0.373245 0.427923 0.181940 0.211740
H46   H     H_    0.437258 0.368720 0.244116 0.217236
H47   H     H_    0.859201 0.961552 0.168647 0.207646
H48   H     H_    0.906474 0.888337 0.214276 0.218648
H49   H     H_    0.958476 0.806077 0.097400 0.194473
H50   H     H_    0.917807 0.192863 0.039018 0.198760
H51   H     H_    0.641120 0.303061 0.181896 0.216856
H52   H     H_    0.633742 0.693627 0.191241 0.217775
F13   F     F_    0.188201 0.408055 0.124412 -0.600185
F14   F     F_    0.688762 0.917428 0.113027 -0.653673
H53   H     H_    0.307871 0.418096 0.249331 0.191032
H54   H     H_    0.808406 0.926791 0.239520 0.183140
F15   F     F_    0.307093 0.638585 0.388345 -0.632017
F16   F     F_    0.310564 0.541539 0.437320 -0.700874
F17   F     F_    0.807295 0.123748 0.409477 -0.644021
F18   F     F_    0.811584 0.020877 0.443306 -0.706952

loop_
_geom_bond_atom_site_label_1
_geom_bond_atom_site_label_2
_ccdc_geom_bond_type
C101  C107  A    
C66   C68   A    
C12   C22   A    
C78   C102  A    
O30   Zn1   S    
C41   C43   S    
C54   O40   A    
C113  C117  A    
C77   C101  A    
C43   F8    S    
C75   C117  A    
C83   H8    S    
C4    C8    S    
C86   C104  S    
C58   C94   S    
O9    Zn7   S    
C50   O46   A    
C63   O24   A    
C39   C41   A    
C49   O45   A    
C70   H38   S    
C7    H25   S    
C66   C79   A    
C108  F4    S    
C27   C99   S    
C9    H27   S    
O39   Zn3   S    
C5    C119  S    
O22   Zn12  S    
C60   O17   A    
C22   C24   S    
C47   O43   A    
C35   C37   A    
C24   C26   S    
C23   F16   S    
O3    Zn7   S    
C103  H17   S    
C4    H22   S    
O19   Zn9   S    
C85   C96   A    
C86   C88   A    
C5    H23   S    
C11   C13   A    
C98   H48   S    
C17   H53   S    
C98   C103  S    
O17   Zn11  S    
C56   O10   A    
C84   H9    S    
C8    C76   S    
C77   C119  A    
C51   C115  S    
C27   O33   A    
C4    H50   S    
O4    Zn7   S    
C58   O13   A    
C28   O30   A    
C8    H30   S    
C3    C117  S    
C10   H32   S    
C7    H29   S    
C58   O14   A    
O45   Zn5   S    
C46   H35   S    
C15   F13   S    
C50   O4    A    
C65   C67   A    
C81   H40   S    
C96   C98   S    
C109  H11   S    
C31   C33   A    
C53   O37   A    
C110  H12   S    
C70   C71   A    
C52   O48   A    
C30   O32   A    
C20   C60   S    
C31   C41   A    
C25   H2    S    
C110  C114  A    
O1    Zn1   S    
C85   C103  S    
C109  C113  A    
C94   C96   A    
C107  C111  A    
C28   C100  S    
C35   F5    S    
C55   O7    A    
C93   C95   A    
C65   C80   A    
C57   C93   S    
C48   O44   A    
O46   Zn5   S    
C52   O6    A    
O31   Zn2   S    
C56   C88   S    
C6    H52   S    
C92   H16   S    
O5    Zn8   S    
C42   C44   S    
C10   C78   S    
C99   C105  A    
C69   H37   S    
C47   C67   S    
C38   H6    S    
C3    H49   S    
C44   C46   S    
O7    Zn5   S    
C37   H5    S    
C85   C87   A    
C33   C53   S    
O42   Zn6   S    
C8    H26   S    
O32   Zn2   S    
O26   Zn12  S    
C32   C42   A    
C45   H33   S    
O16   Zn10  S    
C24   F18   S    
O41   Zn5   S    
C55   O9    A    
C72   C74   A    
C103  H18   S    
O12   Zn10  S    
C79   C81   S    
C16   F14   S    
O38   Zn2   S    
C7    C75   S    
C98   H47   S    
C100  C106  A    
C3    C7    S    
C61   C73   S    
C62   O21   A    
C66   C84   S    
O35   Zn4   S    
O36   Zn4   S    
O47   Zn6   S    
C76   C118  A    
C116  C120  A    
C12   C26   S    
C50   C114  S    
O18   Zn12  S    
C32   C34   A    
O44   Zn8   S    
C69   C72   A    
C78   C120  A    
C31   C45   S    
C27   O29   A    
C19   C59   S    
C5    C9    S    
C19   C21   A    
C29   C101  S    
C28   O34   A    
C91   C93   A    
C64   O26   A    
C51   O5    A    
C97   H45   S    
C57   O11   A    
C13   C15   A    
C30   C102  S    
C75   C99   A    
C49   C113  S    
O40   Zn4   S    
C90   H44   S    
C61   O20   A    
C9    C77   S    
C48   C68   S    
C89   C92   A    
C102  C108  A    
C43   C45   S    
C53   O39   A    
O15   Zn9   S    
C114  C118  A    
C72   F12   S    
C55   C87   S    
C61   O19   A    
C80   C82   S    
C84   H10   S    
C88   C90   A    
C34   C54   S    
C115  C119  A    
C21   C23   S    
O2    Zn2   S    
C89   H43   S    
C14   C16   A    
C104  H20   S    
C1    C13   S    
C26   H3    S    
C20   C22   A    
C36   F6    S    
C36   C38   A    
C97   H46   S    
C71   F11   S    
C5    H51   S    
C112  C116  A    
C81   C84   S    
C59   O15   A    
C60   O18   A    
C71   C73   A    
C51   O47   A    
C106  C110  A    
O10   Zn8   S    
C52   C116  S    
C15   C17   A    
C105  C109  A    
C9    H31   S    
O48   Zn6   S    
C29   O31   A    
C48   O42   A    
C45   H34   S    
C32   C46   S    
C6    C120  S    
C47   O41   A    
C24   F17   S    
C43   F7    S    
C111  H13   S    
O27   Zn3   S    
O28   Zn4   S    
C105  F1    S    
C40   C64   S    
C6    C10   S    
C18   C20   A    
C111  C115  A    
C95   C97   S    
C63   O23   A    
O13   Zn11  S    
C3    H21   S    
C76   C100  A    
C73   C79   A    
C39   C63   S    
O20   Zn10  S    
C2    O28   A    
C104  H19   S    
C56   O8    A    
O37   Zn1   S    
C16   C18   A    
C46   H36   S    
C82   H42   S    
C12   C14   A    
O6    Zn8   S    
C23   F15   S    
O25   Zn11  S    
O21   Zn11  S    
C106  F2    S    
C38   C40   A    
C64   O25   A    
C1    O27   A    
O33   Zn3   S    
C92   C94   A    
C2    O2    A    
C57   O12   A    
C25   H1    S    
C29   O35   A    
C40   C42   A    
C33   C35   A    
O11   Zn9   S    
C11   C21   A    
C54   O38   A    
C34   C36   A    
C26   H4    S    
O23   Zn9   S    
C49   O3    A    
C2    C14   S    
C83   H7    S    
C44   F10   S    
C1    O1    A    
C97   C104  S    
C65   C83   S    
C86   C95   A    
O29   Zn1   S    
O8    Zn6   S    
C17   C19   A    
C108  C112  A    
C37   C39   A    
C23   C25   S    
C91   H15   S    
O14   Zn12  S    
O43   Zn7   S    
C68   C70   A    
C82   C83   S    
C81   H39   S    
C82   H41   S    
C10   H28   S    
O34   Zn3   S    
O24   Zn10  S    
C18   H54   S    
C11   C25   S    
C87   C89   A    
C62   C74   S    
C74   C80   A    
C44   F9    S    
C67   C69   A    
C112  H14   S    
C6    H24   S    
C107  F3    S    
C59   O16   A    
C90   C91   A    
C30   O36   A    
C4    C118  S    
C62   O22   A    
