data_mof_unit_pretest_141.cif
_audit_creation_date              2012-12-10T18:11:02-0500
_audit_creation_method            fapswitch 2.2
_symmetry_space_group_name_H-M    P1
_symmetry_Int_Tables_number       1
_space_group_crystal_system       triclinic
_cell_length_a                    10.919622
_cell_length_b                    9.738394
_cell_length_c                    10.69936
_cell_angle_alpha                 89.686292
_cell_angle_beta                  86.23806
_cell_angle_gamma                 88.759006
_cell_volume                      1135.03822023

loop_
_atom_site_label
_atom_site_type_symbol
_atom_type_description
_atom_site_fract_x
_atom_site_fract_y
_atom_site_fract_z
_atom_type_partial_charge
C1    C     C_R   0.261424 0.501295 0.507379 0.887523
C2    C     C_3   0.496570 0.501772 0.123321 -0.321883
C3    C     C_3   0.064975 0.644529 0.553075 0.217935
C4    C     C_3   0.072606 0.385820 0.601854 0.225347
C5    C     C_3   0.924317 0.629650 0.575972 0.215490
C6    C     C_3   0.932679 0.370443 0.586514 0.217092
C7    C     C_3   0.086398 0.473971 0.379665 -0.607064
C8    C     C_3   0.124439 0.502674 0.513568 -0.237760
C9    C     C_3   0.880340 0.495870 0.510970 -0.337025
C10   C     C_3   0.944642 0.484863 0.373854 0.571014
C11   C     C_3   0.613939 0.075522 0.552663 0.637575
C12   C     C_3   0.621109 0.912103 0.531968 0.648234
C13   C     C_3   0.389125 0.083914 0.573427 0.268308
C14   C     C_3   0.400551 0.920902 0.589979 0.236483
C15   C     C_3   0.492193 0.083405 0.374673 -0.364304
C16   C     C_3   0.473121 0.920236 0.378453 -0.363383
C17   C     C_R   0.499981 0.500491 0.260348 0.904379
C18   C     C_R   0.739826 0.498480 0.505159 0.956407
C19   C     C_R   0.494702 0.499707 0.739633 0.934323
C20   C     C_3   0.468296 0.627846 0.040956 0.314051
C21   C     C_3   0.409458 0.414187 0.050411 0.308234
C22   C     C_3   0.382636 0.539811 0.968652 0.135563
C23   C     C_3   0.490233 0.498886 0.876585 -0.207958
C24   C     C_3   0.577230 0.586775 0.948215 -0.147143
C25   C     C_3   0.518086 0.371731 0.957276 -0.124947
C26   C     C_3   0.604031 0.460330 0.030273 0.352846
Cu1   Cu    Cu3+1 0.499860 0.642410 0.500060 1.080558
Cu2   Cu    Cu3+1 0.499860 0.357590 0.500060 1.095746
H1    H     H_    0.414738 0.132859 0.327646 0.243550
H2    H     H_    0.377270 0.898228 0.356145 0.202360
H3    H     H_    0.575510 0.107264 0.313829 0.274020
H4    H     H_    0.529744 0.872415 0.300542 0.302039
H5    H     H_    0.307522 0.103230 0.517716 0.101536
H6    H     H_    0.311739 0.879277 0.565160 0.160519
H7    H     H_    0.646661 0.658005 0.906549 0.274513
H8    H     H_    0.538241 0.265261 0.925351 0.275209
H9    H     H_    0.081743 0.717243 0.473284 0.141398
H10   H     H_    0.118123 0.286456 0.573113 0.139747
H11   H     H_    0.883233 0.721780 0.534539 0.215984
H12   H     H_    0.928705 0.277879 0.529431 0.190498
H13   H     H_    0.132476 0.546739 0.312165 0.212521
H14   H     H_    0.121834 0.370008 0.350836 0.253769
N1    N     N_3   0.500250 0.143650 0.502780 -0.280789
N2    N     N_3   0.500250 0.856350 0.502780 -0.289415
O1    O     O_R   0.317570 0.620260 0.500070 -0.584134
O2    O     O_R   0.317570 0.379740 0.500070 -0.589677
O3    O     O_R   0.499850 0.620240 0.316900 -0.560505
O4    O     O_R   0.499850 0.379760 0.316900 -0.563557
O5    O     O_R   0.682190 0.620260 0.500030 -0.521611
O6    O     O_R   0.682190 0.379740 0.500030 -0.503930
O7    O     O_R   0.499910 0.620280 0.683200 -0.520248
O8    O     O_R   0.499910 0.379720 0.683200 -0.506013
N3    N     N_2   0.263936 0.586545 0.931178 -0.350642
H15   H     H_    0.271467 0.671039 0.873718 0.340676
C27   C     C_3   0.168605 0.604432 0.030518 -0.289469
H16   H     H_    0.085357 0.650672 0.991541 0.289347
H17   H     H_    0.198776 0.673306 0.104310 0.200286
H18   H     H_    0.142771 0.503986 0.072039 0.269016
Cl1   Cl    Cl    0.906889 0.628035 0.277003 -0.474904
Cl2   Cl    Cl    0.898691 0.336681 0.292346 -0.392713
Cl3   Cl    Cl    0.624169 0.123611 0.713730 -0.354878
Cl4   Cl    Cl    0.677554 0.833024 0.668265 -0.395698
Cl5   Cl    Cl    0.753797 0.133288 0.478764 -0.450168
Cl6   Cl    Cl    0.732367 0.862271 0.402437 -0.453901
Cl7   Cl    Cl    0.337375 0.170918 0.715230 -0.371685
Cl8   Cl    Cl    0.406897 0.873980 0.752232 -0.373366
Cl9   Cl    Cl    0.433919 0.801320 0.083812 -0.491476
Cl10  Cl    Cl    0.303113 0.293132 0.116381 -0.496993
Cl11  Cl    Cl    0.755842 0.407544 0.056596 -0.301380
Cl12  Cl    Cl    0.132328 0.728565 0.680131 -0.470439
Cl13  Cl    Cl    0.110998 0.407893 0.761017 -0.333272
Cl14  Cl    Cl    0.876945 0.634637 0.741210 -0.349650
Cl15  Cl    Cl    0.845933 0.325722 0.728988 -0.312113

loop_
_geom_bond_atom_site_label_1
_geom_bond_atom_site_label_2
_ccdc_geom_bond_type
C7    C10   S    
C27   H16   S    
C1    C8    S    
C20   Cl9   S    
C19   C23   S    
C17   O4    A    
C4    C8    S    
C6    C9    S    
C7    C8    S    
C13   Cl7   S    
N3    H15   S    
C13   H5    S    
Cu2   O2    S    
C24   C26   S    
C5    Cl14  S    
C11   Cl5   S    
C12   Cl6   S    
C1    O2    A    
C16   H2    S    
C15   C16   S    
C7    H14   S    
Cu2   O6    S    
C19   O8    A    
C20   C24   S    
C23   C24   S    
C11   N1    S    
C9    C10   S    
C16   N2    S    
Cu1   O1    S    
C7    H13   S    
C21   C22   S    
C2    C17   S    
Cu1   N2    S    
Cu1   O7    S    
C15   H1    S    
C22   N3    S    
N3    C27   S    
C24   H7    S    
C2    C20   S    
C3    Cl12  S    
C4    C6    S    
C3    C8    S    
C11   Cl3   S    
C25   C26   S    
C10   Cl2   S    
C5    C9    S    
C12   Cl4   S    
C2    C21   S    
C14   Cl8   S    
C2    C26   S    
C20   C22   S    
C27   H17   S    
C21   Cl10  S    
C6    H12   S    
C13   N1    S    
C18   O6    A    
C6    Cl15  S    
C14   N2    S    
Cu1   O3    S    
C21   C25   S    
Cu2   O4    S    
C17   O3    A    
C4    H10   S    
C3    C5    S    
C14   H6    S    
C11   C12   S    
C15   H3    S    
C16   H4    S    
Cu2   N1    S    
C5    H11   S    
C10   Cl1   S    
C15   N1    S    
C12   N2    S    
Cu2   O8    S    
C1    O1    A    
C23   C25   S    
C25   H8    S    
C19   O7    A    
C9    C18   S    
C3    H9    S    
C27   H18   S    
Cu1   Cu2   S    
C26   Cl11  S    
C22   C23   S    
C13   C14   S    
C4    Cl13  S    
Cu1   O5    S    
C18   O5    A    
