data_mof_unit_pretest_704.cif
_audit_creation_date              2012-12-10T20:31:08-0500
_audit_creation_method            fapswitch 2.2
_symmetry_space_group_name_H-M    P1
_symmetry_Int_Tables_number       1
_space_group_crystal_system       triclinic
_cell_length_a                    14.919661
_cell_length_b                    10.681508
_cell_length_c                    9.864939
_cell_angle_alpha                 89.837516
_cell_angle_beta                  89.631958
_cell_angle_gamma                 89.660145
_cell_volume                      1572.05461415

loop_
_atom_site_label
_atom_site_type_symbol
_atom_type_description
_atom_site_fract_x
_atom_site_fract_y
_atom_site_fract_z
_atom_type_partial_charge
C1    C     C_R   0.503644 0.259833 0.500048 0.884976
C2    C     C_R   0.186619 0.413912 0.432731 -0.293789
C3    C     C_R   0.231458 0.508759 0.500012 -0.100532
C4    C     C_R   0.326977 0.503200 0.500219 0.928349
C5    C     C_R   0.185775 0.608380 0.562681 0.083477
C6    C     C_R   0.537574 0.063196 0.618280 0.086736
C7    C     C_R   0.520303 0.128473 0.498510 -0.137327
C8    C     C_R   0.522913 0.064744 0.374263 -0.183173
C9    C     C_R   0.522949 0.935479 0.374080 -0.175563
C10   C     C_R   0.520441 0.871046 0.498130 -0.128599
C11   C     C_R   0.537619 0.935261 0.618060 0.085618
C12   C     C_R   0.904188 0.599864 0.572327 0.059095
C13   C     C_3   0.495633 0.927288 0.755861 -0.033798
C14   C     C_3   0.495493 0.070615 0.756076 -0.030241
C15   C     C_R   0.421341 0.493975 0.072165 0.213692
C16   C     C_R   0.503783 0.740042 0.499747 0.917471
C17   C     C_R   0.578107 0.493459 0.071163 -0.083727
C18   C     C_R   0.578113 0.493719 0.927432 -0.041460
C19   C     C_R   0.421328 0.494240 0.929561 0.217675
C20   C     C_3   0.347793 0.589218 0.925363 -0.465794
C21   C     C_3   0.347404 0.588065 0.079083 -0.484311
C22   C     C_R   0.672950 0.499616 0.499619 0.893022
C23   C     C_R   0.956019 0.320546 0.356897 -0.190129
C24   C     C_R   0.811218 0.594335 0.572978 -0.213190
C25   C     C_R   0.768149 0.502092 0.499007 -0.064842
C26   C     C_R   0.815180 0.412591 0.424980 -0.238257
C27   C     C_R   0.907869 0.413039 0.426647 0.136344
C28   C     C_R   0.952855 0.507421 0.499682 0.041981
C29   C     C_R   0.048965 0.320526 0.359513 -0.188809
C30   C     C_R   0.094142 0.414180 0.430048 0.134537
C31   C     C_R   0.046362 0.509079 0.499577 0.029067
C32   C     C_R   0.092007 0.606014 0.567487 0.043681
C33   C     C_R   0.042776 0.697779 0.637884 -0.202752
C34   C     C_R   0.949688 0.694881 0.641758 0.143002
H1    H     H_    0.771108 0.662146 0.628081 0.185535
H2    H     H_    0.075558 0.771637 0.692774 0.206206
H3    H     H_    0.517375 0.113402 0.278134 0.196261
H4    H     H_    0.517377 0.887486 0.277907 0.194851
H5    H     H_    0.426936 0.888232 0.752629 0.148237
H6    H     H_    0.285395 0.550944 0.881051 0.223089
H7    H     H_    0.368956 0.678154 0.124416 0.227406
H8    H     H_    0.779404 0.341459 0.368960 0.150820
H9    H     H_    0.426679 0.111097 0.752482 0.130233
H10   H     H_    0.641239 0.491462 0.124218 0.163946
H11   H     H_    0.641287 0.491919 0.873294 0.172146
H12   H     H_    0.370340 0.679830 0.881706 0.239590
H13   H     H_    0.285098 0.548108 0.123412 0.214753
H14   H     H_    0.921783 0.247918 0.301239 0.163647
H15   H     H_    0.085547 0.247766 0.305925 0.157936
H16   H     H_    0.224217 0.339877 0.382447 0.153997
I1    I     I_    0.581816 0.829698 0.895377 -0.305222
I2    I     I_    0.581913 0.164103 0.896506 -0.316090
I3    I     I_    0.258870 0.768130 0.631284 -0.458048
I4    I     I_    0.884043 0.839147 0.753915 -0.311461
N1    N     N_R   0.499390 0.499140 0.142800 -0.114318
N2    N     N_R   0.499390 0.499180 0.857150 -0.105114
O1    O     O_R   0.500010 0.316790 0.614690 -0.602309
O2    O     O_R   0.500000 0.316760 0.385350 -0.623307
O3    O     O_R   0.367850 0.499990 0.614680 -0.607384
O4    O     O_R   0.367840 0.499950 0.385340 -0.621268
O5    O     O_R   0.500000 0.683240 0.614650 -0.596701
O6    O     O_R   0.499990 0.683210 0.385310 -0.620572
O7    O     O_R   0.632160 0.500050 0.614660 -0.618454
O8    O     O_R   0.632150 0.500010 0.385320 -0.628625
Zn1   Zn    Zn3+2 0.500010 0.500020 0.653130 0.990841
Zn2   Zn    Zn3+2 0.499990 0.499980 0.346870 0.966952

loop_
_geom_bond_atom_site_label_1
_geom_bond_atom_site_label_2
_ccdc_geom_bond_type
C19   N2    A    
C8    C9    A    
O7    Zn1   S    
C29   C30   A    
C1    O1    A    
C6    C14   S    
C2    H16   S    
C9    C10   A    
C17   N1    A    
C31   C32   A    
C18   N2    A    
C2    C30   A    
C5    C32   A    
C32   C33   A    
C4    O4    A    
C33   C34   A    
C25   C26   A    
C17   H10   S    
O4    Zn2   S    
C7    C8    A    
C20   C21   S    
C10   C16   S    
C1    O2    A    
O3    Zn1   S    
C15   C19   A    
C11   C13   S    
O8    Zn2   S    
C26   C27   A    
C6    C7    A    
C16   O6    A    
C12   C28   A    
C21   H7    S    
C23   C29   A    
C4    O3    A    
C5    I3    S    
C9    H4    S    
C34   I4    S    
C23   C27   A    
C10   C11   A    
C6    C11   A    
C13   I1    S    
C30   C31   A    
C20   H6    S    
C14   I2    S    
C13   H5    S    
C24   H1    S    
C8    H3    S    
O6    Zn2   S    
C12   C34   A    
N2    Zn1   S    
C3    C5    A    
C18   H11   S    
O5    Zn1   S    
C15   C21   S    
C33   H2    S    
C24   C25   A    
C26   H8    S    
C17   C18   A    
C16   O5    A    
C27   C28   A    
C12   C24   A    
C14   H9    S    
C2    C3    A    
C23   H14   S    
C29   H15   S    
C1    C7    S    
C22   O7    A    
C13   C14   S    
C22   O8    A    
O2    Zn2   S    
C28   C31   A    
C20   H12   S    
C3    C4    S    
C19   C20   S    
O1    Zn1   S    
N1    Zn2   S    
C21   H13   S    
C22   C25   S    
C15   N1    A    
