data_mof_unit_pretest_1287.cif
_audit_creation_date              2012-12-10T17:04:36-0500
_audit_creation_method            fapswitch 2.2
_symmetry_space_group_name_H-M    P1
_symmetry_Int_Tables_number       1
_space_group_crystal_system       triclinic
_cell_length_a                    14.949674
_cell_length_b                    10.717796
_cell_length_c                    10.02005
_cell_angle_alpha                 89.030027
_cell_angle_beta                  91.948083
_cell_angle_gamma                 90.33881
_cell_volume                      1604.30740067

loop_
_atom_site_label
_atom_site_type_symbol
_atom_type_description
_atom_site_fract_x
_atom_site_fract_y
_atom_site_fract_z
_atom_type_partial_charge
C1    C     C_R   0.496582 0.262585 0.500933 1.086841
C2    C     C_R   0.185044 0.374399 0.458318 0.298308
C3    C     C_R   0.231393 0.486037 0.490200 -0.184393
C4    C     C_R   0.327104 0.492368 0.497462 0.979021
C5    C     C_R   0.186480 0.595850 0.516184 -0.239829
C6    C     C_2   0.455695 0.936092 0.394584 0.476950
C7    C     C_2   0.498171 0.869521 0.492598 -0.478212
C8    C     C_2   0.469640 0.069380 0.390872 -0.102247
C9    C     C_2   0.482393 0.131450 0.504095 -0.279882
C10   C     C_2   0.551407 0.572216 0.926192 -0.082726
C11   C     C_2   0.554924 0.567007 0.076534 -0.037080
C12   C     C_R   0.907973 0.598977 0.514931 0.134829
C13   C     C_R   0.497086 0.737311 0.498217 0.969797
C14   C     C_R   0.672880 0.496023 0.502561 0.959515
C15   C     C_R   0.815508 0.599918 0.511369 -0.320621
C16   C     C_R   0.768227 0.487831 0.509873 -0.176518
C17   C     C_R   0.811644 0.371288 0.517335 0.391914
C18   C     C_R   0.904715 0.370192 0.501751 -0.007549
C19   C     C_R   0.952991 0.484296 0.505081 0.028149
C20   C     C_R   0.951049 0.259090 0.482435 -0.122995
C21   C     C_R   0.043163 0.259111 0.474851 -0.134884
C22   C     C_R   0.092070 0.371271 0.476697 0.005859
C23   C     C_R   0.046443 0.484187 0.498203 0.033289
C24   C     C_R   0.094067 0.597339 0.513376 0.110051
C25   C     C_R   0.048783 0.709941 0.527874 -0.160157
C26   C     C_R   0.955887 0.711100 0.525654 -0.177349
H1    H     H_    0.779827 0.687885 0.511674 0.155274
H2    H     H_    0.223983 0.681052 0.535739 0.189256
H3    H     H_    0.921544 0.799281 0.534002 0.161208
H4    H     H_    0.467779 0.116656 0.294028 0.220528
H5    H     H_    0.778901 0.046408 0.635678 0.379415
H6    H     H_    0.297350 0.323563 0.214667 0.362729
H7    H     H_    0.085181 0.797146 0.538824 0.173474
H8    H     H_    0.280937 0.945207 0.131087 0.389820
H9    H     H_    0.541184 0.912773 0.568224 0.140309
H10   H     H_    0.476581 0.087063 0.601688 0.155736
H11   H     H_    0.595219 0.638536 0.877519 0.162174
H12   H     H_    0.462912 0.433822 0.897142 0.173395
H13   H     H_    0.605105 0.623903 0.127699 0.163646
H14   H     H_    0.450243 0.452660 0.100501 0.170990
H15   H     H_    0.917217 0.171027 0.468201 0.221452
H16   H     H_    0.074771 0.169167 0.471734 0.218673
N1    N     N_2   0.500970 0.501330 0.852150 -0.187380
N2    N     N_2   0.500990 0.501360 0.147810 -0.177718
O1    O     O_R   0.499990 0.319060 0.613040 -0.599314
O2    O     O_2   0.711809 0.178996 0.427887 -0.341986
O3    O     O_3   0.816010 0.123260 0.633553 -0.568467
O4    O     O_2   0.276775 0.163235 0.506688 -0.294154
O5    O     O_2   0.179042 0.164990 0.306164 -0.278424
O6    O     O_3   0.326154 0.285103 0.295691 -0.530499
O7    O     O_2   0.438513 0.816173 0.162318 -0.303749
O8    O     O_2   0.323540 0.774922 0.326946 -0.315420
O9    O     O_3   0.320245 0.987322 0.198162 -0.475775
O10   O     O_R   0.500010 0.319100 0.386900 -0.592645
O11   O     O_R   0.367830 0.499950 0.613080 -0.627995
O12   O     O_R   0.367860 0.499990 0.386940 -0.563975
O13   O     O_R   0.499990 0.680900 0.613100 -0.625895
O14   O     O_R   0.500010 0.680940 0.386960 -0.556349
O15   O     O_R   0.632140 0.500010 0.613060 -0.588790
O16   O     O_R   0.632170 0.500050 0.386920 -0.626647
O17   O     O_2   0.676731 0.258638 0.647696 -0.297800
S1    S     S_3+6 0.750796 0.231282 0.555511 -0.011016
S2    S     S_3+6 0.241283 0.242664 0.392108 0.019645
S3    S     S_3+6 0.383487 0.872954 0.268156 0.064842
Zn1   Zn    Zn3+2 0.499980 0.499970 0.650990 1.016328
Zn2   Zn    Zn3+2 0.500020 0.500030 0.349010 1.055022

loop_
_geom_bond_atom_site_label_1
_geom_bond_atom_site_label_2
_ccdc_geom_bond_type
C2    C22   A    
C9    H10   S    
C19   C23   A    
C23   C24   A    
C24   C25   A    
C6    C7    D    
O5    S2    D    
C17   S1    S    
C5    H2    S    
C14   O16   A    
C15   H1    S    
H6    O6    S    
C12   C15   A    
H14   N2    S    
N1    Zn1   S    
C8    H4    S    
O3    S1    S    
C2    C3    A    
C10   N1    D    
O16   Zn2   S    
H12   N1    S    
H5    O3    S    
C21   C22   A    
C20   C21   A    
C11   H13   S    
O6    S2    S    
C1    O1    A    
O10   Zn2   S    
C5    C24   A    
C7    H9    S    
O2    S1    D    
C1    O10   A    
O12   Zn2   S    
C15   C16   A    
C12   C19   A    
O11   Zn1   S    
C12   C26   A    
C20   H15   S    
O15   Zn1   S    
C18   C20   A    
C10   H11   S    
C4    O11   A    
O1    Zn1   S    
O17   S1    D    
O9    S3    S    
C14   C16   S    
C13   O13   A    
C10   C11   S    
C6    S3    S    
C21   H16   S    
C11   N2    D    
C7    C13   S    
C1    C9    S    
C2    S2    S    
H8    O9    S    
C17   C18   A    
C18   C19   A    
O8    S3    D    
C25   H7    S    
C26   H3    S    
C8    C9    D    
O4    S2    D    
C6    C8    S    
C13   O14   A    
C14   O15   A    
C25   C26   A    
C22   C23   A    
N2    Zn2   S    
O14   Zn2   S    
C4    O12   A    
O7    S3    D    
C3    C4    S    
O13   Zn1   S    
C16   C17   A    
C3    C5    A    
