data_mof_unit_pretest_773.cif
_audit_creation_date              2012-12-10T19:27:31-0500
_audit_creation_method            fapswitch 2.2
_symmetry_space_group_name_H-M    P1
_symmetry_Int_Tables_number       1
_space_group_crystal_system       triclinic
_cell_length_a                    23.42338
_cell_length_b                    10.499975
_cell_length_c                    9.744308
_cell_angle_alpha                 89.497843
_cell_angle_beta                  89.897123
_cell_angle_gamma                 89.970611
_cell_volume                      2396.46669754

loop_
_atom_site_label
_atom_site_type_symbol
_atom_type_description
_atom_site_fract_x
_atom_site_fract_y
_atom_site_fract_z
_atom_type_partial_charge
C1    C     C_R   0.500123 0.257567 0.500647 0.957912
C2    C     C_R   0.499878 0.742433 0.499351 0.957826
C3    C     C_R   0.237709 0.504946 0.374605 0.401512
C4    C     C_R   0.762375 0.493039 0.373845 0.404967
C5    C     C_R   0.297204 0.505130 0.375587 -0.246373
C6    C     C_R   0.702876 0.492714 0.375116 -0.270745
C7    C     C_R   0.327091 0.499693 0.500193 -0.199322
C8    C     C_R   0.672902 0.500416 0.499594 -0.200536
C9    C     C_R   0.297151 0.494156 0.624737 -0.275872
C10   C     C_R   0.702752 0.508350 0.623723 -0.249266
C11   C     C_R   0.237997 0.494036 0.624817 0.700191
C12   C     C_R   0.761901 0.508561 0.623527 0.698169
C13   C     C_R   0.208263 0.499473 0.500609 0.028393
C14   C     C_R   0.791728 0.500862 0.499452 0.027523
C15   C     C_3   0.500324 0.038883 0.631973 -0.285096
C16   C     C_3   0.499680 0.961116 0.368014 -0.284891
C17   C     C_3   0.546315 0.957050 0.562739 0.734252
C18   C     C_3   0.453688 0.042950 0.437248 0.734226
C19   C     C_3   0.499577 0.877291 0.497866 -0.192369
C20   C     C_3   0.500426 0.122710 0.502123 -0.192837
C21   C     C_3   0.452826 0.957192 0.565901 -0.312137
C22   C     C_3   0.547177 0.042809 0.434086 -0.311366
C23   C     C_R   0.389381 0.499909 0.500101 0.958316
C24   C     C_R   0.610617 0.500104 0.499871 0.958545
C25   C     C_3   0.462276 0.421730 0.049621 -0.055654
C26   C     C_3   0.537724 0.578271 0.950381 -0.054847
C27   C     C_3   0.511515 0.387937 0.952354 -0.073342
C28   C     C_3   0.488485 0.612062 0.047649 -0.072509
C29   C     C_3   0.450717 0.533816 0.951373 -0.066529
C30   C     C_3   0.549283 0.466184 0.048630 -0.065127
C31   C     C_R   0.880577 0.614534 0.504456 0.621449
C32   C     C_R   0.119404 0.385883 0.509320 0.620392
C33   C     C_R   0.880486 0.386615 0.507617 0.617559
C34   C     C_R   0.119497 0.613794 0.505124 0.618487
C35   C     C_R   0.940056 0.383938 0.509773 -0.040428
C36   C     C_R   0.059921 0.616494 0.506708 -0.039922
C37   C     C_R   0.970010 0.500311 0.508341 -0.016281
C38   C     C_R   0.029966 0.500125 0.508677 -0.015976
C39   C     C_R   0.940150 0.616867 0.506438 -0.053583
C40   C     C_R   0.059825 0.383569 0.510822 -0.053919
C41   C     C_R   0.970181 0.268361 0.512736 -0.111110
C42   C     C_R   0.029793 0.732082 0.505671 -0.111261
C43   C     C_R   0.029604 0.268180 0.513323 -0.114524
C44   C     C_R   0.970369 0.732266 0.505599 -0.113937
H1    H     H_    0.947996 0.177864 0.514054 0.199118
H2    H     H_    0.051978 0.822579 0.504343 0.199061
H3    H     H_    0.521238 0.293619 0.907289 0.140766
H4    H     H_    0.478759 0.706378 0.092717 0.140537
H5    H     H_    0.430556 0.355931 0.096615 0.166340
H6    H     H_    0.569441 0.644078 0.903390 0.164779
H7    H     H_    0.409241 0.562347 0.905474 0.148698
H8    H     H_    0.590759 0.437645 0.094525 0.148580
H9    H     H_    0.051716 0.177548 0.515047 0.199590
H10   H     H_    0.948257 0.822900 0.504221 0.199595
H11   H     H_    0.320213 0.509946 0.279233 0.212631
H12   H     H_    0.679934 0.485955 0.279120 0.207289
H13   H     H_    0.319373 0.489869 0.722059 0.203381
H14   H     H_    0.680458 0.514488 0.720938 0.208493
H15   H     H_    0.501350 0.073886 0.739136 0.185093
H16   H     H_    0.498653 0.926113 0.260852 0.185167
H17   H     H_    0.414240 0.918213 0.617541 0.192990
H18   H     H_    0.585763 0.081791 0.382444 0.193331
N1    N     N_R   0.852413 0.500640 0.502795 -0.335080
N2    N     N_R   0.147576 0.499735 0.504141 -0.334919
N3    N     N_3   0.499960 0.500030 0.863290 -0.089732
N4    N     N_3   0.500040 0.499970 0.136710 -0.089886
O1    O     O_R   0.500000 0.313960 0.616610 -0.630590
O2    O     O_R   0.500000 0.686040 0.383390 -0.630535
O3    O     O_R   0.500030 0.313950 0.383350 -0.603038
O4    O     O_R   0.499970 0.686050 0.616650 -0.603108
O5    O     O_R   0.416140 0.499970 0.616650 -0.632044
O6    O     O_R   0.583860 0.500030 0.383350 -0.630858
O7    O     O_R   0.416170 0.499960 0.383400 -0.615311
O8    O     O_R   0.583830 0.500040 0.616600 -0.616284
O9    O     O_2   0.850846 0.724702 0.502919 -0.483654
O10   O     O_2   0.149135 0.275722 0.511639 -0.483897
O11   O     O_2   0.850667 0.276637 0.510025 -0.492147
O12   O     O_2   0.149315 0.723779 0.504154 -0.492868
Zn1   Zn    Zn3+2 0.499980 0.500010 0.655740 0.975797
Zn2   Zn    Zn3+2 0.500020 0.499990 0.344260 0.976818
S1    S     S_3+6 0.201068 0.513174 0.215974 0.100350
O13   O     O_2   0.170411 0.638733 0.205589 -0.261027
O14   O     O_2   0.242156 0.502945 0.097899 -0.213434
O15   O     O_3   0.153494 0.393501 0.206370 -0.488873
H19   H     H_    0.115472 0.434797 0.203756 0.365668
S2    S     S_3+6 0.799120 0.481975 0.215426 0.097406
O16   O     O_2   0.829117 0.355516 0.209090 -0.261243
O17   O     O_2   0.758181 0.491821 0.097178 -0.214553
O18   O     O_3   0.847334 0.600241 0.201665 -0.489905
H20   H     H_    0.885157 0.557990 0.201580 0.365480
F1    F     F_    0.209283 0.488930 0.745848 -0.585749
F2    F     F_    0.790524 0.515934 0.744183 -0.583890
F3    F     F_    0.594001 0.907093 0.627108 -0.637794
F4    F     F_    0.406002 0.092904 0.372877 -0.636500

loop_
_geom_bond_atom_site_label_1
_geom_bond_atom_site_label_2
_ccdc_geom_bond_type
O2    Zn2   S    
N3    Zn1   S    
C18   C21   S    
C36   C42   A    
C24   O8    A    
O5    Zn1   S    
S1    O13   D    
C28   C29   S    
C35   C37   A    
C2    O2    A    
C26   H6    S    
C16   H16   S    
C33   C35   A    
S2    O17   D    
C4    S2    S    
C15   C17   S    
C42   H2    S    
C17   C19   S    
C43   H9    S    
C40   C43   A    
C3    S1    S    
C21   H17   S    
C3    C13   A    
C44   H10   S    
O4    Zn1   S    
C27   C30   S    
C41   C43   A    
C42   C44   A    
C23   O7    A    
S1    O14   D    
C12   F2    S    
C25   C29   S    
C15   C20   S    
C37   C39   A    
C23   O5    A    
O1    Zn1   S    
O15   H19   S    
C32   N2    A    
C9    H13   S    
C4    C6    A    
C6    H12   S    
C5    C7    A    
S2    O16   D    
C6    C8    A    
C1    O3    A    
C28   N4    S    
C37   C38   A    
C27   N3    S    
C31   N1    A    
C22   H18   S    
C31   O9    S    
C33   N1    A    
C34   N2    A    
C9    C11   A    
C30   N4    S    
C10   C12   A    
C29   N3    S    
C8    C10   A    
C12   C14   A    
C26   C30   S    
O8    Zn1   S    
C18   F4    S    
C17   F3    S    
S1    O15   S    
C24   O6    A    
C29   H7    S    
C27   H3    S    
C7    C9    A    
C30   H8    S    
C28   H4    S    
C1    C20   S    
C16   C22   S    
C10   H14   S    
C2    C19   S    
C26   N3    S    
C15   H15   S    
C5    H11   S    
C25   N4    S    
C20   C22   S    
C3    C5    A    
S2    O18   S    
C32   O10   S    
C39   C44   A    
C1    O1    A    
C25   C27   S    
N4    Zn2   S    
C26   C28   S    
C17   C22   S    
C36   C38   A    
O6    Zn2   S    
C34   O12   S    
C38   C40   A    
C11   C13   A    
C33   O11   S    
C13   N2    S    
C16   C19   S    
C7    C23   S    
C14   N1    S    
C8    C24   S    
O7    Zn2   S    
C31   C39   A    
C18   C20   S    
C32   C40   A    
C4    C14   A    
C35   C41   A    
C25   H5    S    
C11   F1    S    
C15   C21   S    
C34   C36   A    
C16   C18   S    
C41   H1    S    
O3    Zn2   S    
O18   H20   S    
C2    O4    A    
C19   C21   S    
