data_mof_unit_pretest_840.cif
_audit_creation_date              2012-12-10T18:36:17-0500
_audit_creation_method            fapswitch 2.2
_symmetry_space_group_name_H-M    P1
_symmetry_Int_Tables_number       1
_space_group_crystal_system       triclinic
_cell_length_a                    14.962429
_cell_length_b                    15.393339
_cell_length_c                    19.151344
_cell_angle_alpha                 90.725181
_cell_angle_beta                  104.034175
_cell_angle_gamma                 81.572774
_cell_volume                      4231.90089948

loop_
_atom_site_label
_atom_site_type_symbol
_atom_type_description
_atom_site_fract_x
_atom_site_fract_y
_atom_site_fract_z
_atom_type_partial_charge
C1    C     C_R   0.441506 0.662498 0.491842 0.883785
C2    C     C_R   0.531051 0.186168 0.516606 -0.229530
C3    C     C_R   0.439009 0.902214 0.530127 0.061081
C4    C     C_R   0.549345 0.103993 0.551089 0.067135
C5    C     C_R   0.342225 0.935264 0.507407 0.132302
C6    C     C_R   0.640420 0.074848 0.594379 0.120401
C7    C     C_R   0.505228 0.959299 0.555659 0.090376
C8    C     C_R   0.479138 0.049388 0.540359 0.090078
C9    C     C_R   0.383746 0.082622 0.514084 -0.311839
C10   C     C_R   0.597115 0.928426 0.594812 -0.297654
C11   C     C_R   0.315684 0.027436 0.496390 -0.047549
C12   C     C_R   0.558469 0.337637 0.511826 0.872825
C13   C     C_R   0.664597 0.984184 0.613616 -0.050751
C14   C     C_R   0.828934 0.661462 0.583906 0.406936
C15   C     C_R   0.158176 0.373906 0.376713 0.372964
C16   C     C_R   0.500567 0.500836 0.634410 0.864415
C17   C     C_R   0.499894 0.498059 0.365680 0.870730
C18   C     C_R   0.746376 0.626422 0.577993 -0.144140
C19   C     C_R   0.248715 0.392802 0.403647 -0.149693
C20   C     C_R   0.797218 0.507022 0.510730 0.048714
C21   C     C_R   0.201804 0.487791 0.490855 0.049247
C22   C     C_R   0.877220 0.544637 0.506473 -0.099369
C23   C     C_R   0.405379 0.755463 0.497117 -0.052666
C24   C     C_R   0.106870 0.478749 0.461504 -0.084432
C25   C     C_R   0.891994 0.624615 0.543177 0.072045
C26   C     C_R   0.086041 0.414479 0.407919 0.053246
C27   C     C_R   0.943894 0.505139 0.468760 0.126353
C28   C     C_R   0.032490 0.531590 0.483582 0.145019
C29   C     C_R   0.040724 0.615634 0.511795 -0.264388
C30   C     C_R   0.923532 0.444608 0.413637 -0.268588
C31   C     C_R   0.970589 0.663834 0.538717 -0.024609
C32   C     C_R   0.992680 0.397393 0.384904 -0.023726
C33   C     C_R   0.429771 0.474997 0.734673 -0.148934
C34   C     C_R   0.593436 0.245897 0.533377 -0.060440
C35   C     C_R   0.578120 0.507778 0.266773 -0.190880
C36   C     C_R   0.430267 0.478452 0.806916 -0.162500
C37   C     C_R   0.579701 0.498397 0.195129 -0.178027
C38   C     C_R   0.502418 0.511012 0.856121 0.057174
C39   C     C_R   0.504743 0.469875 0.145895 0.071040
C40   C     C_R   0.573755 0.543805 0.832294 0.007428
C41   C     C_R   0.428932 0.445945 0.169508 0.004060
C42   C     C_R   0.572899 0.538860 0.759347 -0.273023
C43   C     C_R   0.427420 0.457472 0.241554 -0.274588
C44   C     C_R   0.501409 0.504397 0.710571 -0.043940
C45   C     C_R   0.277679 0.873657 0.494920 0.010995
C46   C     C_R   0.501198 0.489052 0.290099 -0.026116
C47   C     C_R   0.503204 0.476481 0.070081 0.348665
C48   C     C_R   0.504169 0.502718 0.931728 0.353376
C49   C     C_2   0.981073 0.756393 0.556456 0.565285
C50   C     C_2   0.962812 0.326860 0.335250 0.588514
C51   C     C_2   0.232563 0.533557 0.558695 0.424425
C52   C     C_2   0.786178 0.415868 0.490907 0.450742
C53   C     C_2   0.648129 0.586253 0.880065 0.416660
C54   C     C_2   0.351808 0.406347 0.122350 0.418132
C55   C     C_2   0.222264 0.069637 0.455700 0.537382
C56   C     C_R   0.702377 0.138249 0.615303 -0.001110
C57   C     C_2   0.761105 0.941016 0.644110 0.570418
C58   C     C_2   0.179296 0.895069 0.499235 0.483147
C59   C     C_2   0.783797 0.126982 0.678145 0.478590
C60   C     C_R   0.310071 0.784911 0.486859 -0.297017
C61   C     C_R   0.679020 0.222069 0.582579 -0.248258
C62   C     C_R   0.468664 0.813492 0.520874 -0.243118
H1    H     H_    0.374255 0.447666 0.698040 0.201653
H2    H     H_    0.369256 0.439949 0.260021 0.149244
H3    H     H_    0.467262 0.205268 0.475926 0.157155
H4    H     H_    0.541952 0.789401 0.528722 0.166376
H5    H     H_    0.724452 0.271096 0.599917 0.181097
H6    H     H_    0.261051 0.738182 0.475379 0.138988
H7    H     H_    0.360398 0.152525 0.506820 0.145530
H8    H     H_    0.617807 0.860212 0.611957 0.128878
H9    H     H_    0.049810 0.773760 0.579159 0.046642
H10   H     H_    0.899930 0.340485 0.292241 0.021346
H11   H     H_    0.278822 0.582053 0.561863 0.091129
H12   H     H_    0.636458 0.531110 0.303517 0.157521
H13   H     H_    0.727748 0.402378 0.448451 0.080773
H14   H     H_    0.801382 0.740848 0.658268 0.309833
H15   H     H_    0.197321 0.299870 0.302705 0.333598
H16   H     H_    0.710104 0.594264 0.862281 0.069588
H17   H     H_    0.287046 0.406630 0.138509 0.072056
H18   H     H_    0.194983 0.135405 0.468999 0.091717
H19   H     H_    0.774477 0.890062 0.685447 0.060012
H20   H     H_    0.127995 0.855696 0.470743 0.057403
H21   H     H_    0.843836 0.158805 0.677841 0.099161
H22   H     H_    0.304307 0.365055 0.379291 0.143730
H23   H     H_    0.693189 0.657908 0.603310 0.131297
H24   H     H_    0.098984 0.647726 0.507623 0.101332
H25   H     H_    0.852547 0.434988 0.390160 0.109539
H26   H     H_    0.375673 0.452815 0.824862 0.175413
H27   H     H_    0.638023 0.516980 0.177545 0.163981
H28   H     H_    0.627213 0.563673 0.740391 0.152345
N1    N     N_R   0.581846 0.462899 0.978762 -0.121133
N2    N     N_R   0.425607 0.516300 0.022971 -0.121674
N3    N     N_R   0.581650 0.450730 0.047199 -0.154558
N4    N     N_R   0.425765 0.528404 0.954570 -0.146566
N5    N     N_R   0.731690 0.552730 0.540620 -0.145120
N6    N     N_R   0.268310 0.447270 0.459380 -0.148351
O1    O     O_R   0.383120 0.605620 0.479520 -0.633271
O2    O     O_2   0.003525 0.251652 0.345539 -0.478228
O3    O     O_2   0.205439 0.517749 0.611741 -0.567766
O4    O     O_2   0.843774 0.355031 0.521164 -0.554765
O5    O     O_3   0.850005 0.728434 0.630875 -0.727011
O6    O     O_3   0.138870 0.322160 0.317035 -0.726813
O7    O     O_2   0.639923 0.615998 0.937939 -0.538500
O8    O     O_2   0.360686 0.369634 0.067037 -0.533314
O9    O     O_2   0.177935 0.034330 0.403950 -0.528375
O10   O     O_2   0.825555 0.958926 0.620973 -0.492492
O11   O     O_2   0.155713 0.952924 0.538122 -0.538730
O12   O     O_R   0.616880 0.394380 0.520480 -0.625591
O13   O     O_2   0.782056 0.087516 0.732591 -0.559593
O14   O     O_R   0.531890 0.639510 0.505590 -0.614858
O15   O     O_R   0.468110 0.360490 0.494410 -0.611777
O16   O     O_R   0.425590 0.483060 0.588820 -0.631999
O17   O     O_R   0.574410 0.516940 0.411180 -0.637594
O18   O     O_R   0.574360 0.516950 0.614890 -0.610977
O19   O     O_R   0.425640 0.483050 0.385110 -0.614829
O20   O     O_2   0.914458 0.814781 0.540944 -0.472304
Zn1   Zn    Zn3+2 0.400660 0.477370 0.482600 0.938142
Zn2   Zn    Zn3+2 0.599340 0.522630 0.517400 0.943906

loop_
_geom_bond_atom_site_label_1
_geom_bond_atom_site_label_2
_ccdc_geom_bond_type
C25   C31   A    
C7    C10   A    
C30   C32   A    
C45   C60   A    
C26   C32   A    
C47   N2    A    
C14   C18   A    
C4    C8    A    
C2    H3    S    
O14   Zn2   S    
C17   O17   A    
C7    C8    A    
C39   C41   A    
C36   H26   S    
C15   C19   A    
C16   O16   A    
C48   N4    A    
C55   O9    D    
C54   O8    D    
C28   C29   A    
C35   C37   A    
C9    H7    S    
C5    C11   A    
C3    C7    A    
C58   H20   S    
O16   Zn1   S    
C13   C57   S    
C33   C36   A    
C22   C25   A    
C58   O11   D    
C50   H10   S    
C23   C62   A    
C8    C9    A    
O19   Zn1   S    
C48   N1    A    
C24   C28   A    
C16   C44   S    
C38   C48   S    
C52   H13   S    
C40   C42   A    
C57   O10   D    
C14   C25   A    
C27   C30   A    
C18   N5    A    
C41   C43   A    
H15   O6    S    
C42   C44   A    
C31   C49   S    
C43   H2    S    
C6    C56   A    
N5    Zn2   S    
C51   O3    D    
C23   C60   A    
C37   C39   A    
C45   C58   S    
C50   O2    D    
C18   H23   S    
C62   H4    S    
O12   Zn2   S    
N6    Zn1   S    
C17   C46   S    
C4    C6    A    
C1    O1    A    
C12   O12   A    
C15   C26   A    
C3    C5    A    
C5    C45   A    
C52   O4    D    
C34   C61   A    
C42   H28   S    
C2    C4    A    
C1    O14   A    
N1    N3    A    
C61   H5    S    
C33   H1    S    
C35   H12   S    
N2    N4    A    
C47   N3    A    
C9    C11   A    
C32   C50   S    
C29   H24   S    
O18   Zn2   S    
C10   H8    S    
C20   N5    A    
C20   C22   A    
C1    C23   S    
C22   C27   A    
C57   H19   S    
C12   C34   S    
C19   H22   S    
C21   C51   S    
C11   C55   S    
C17   O19   A    
C39   C47   S    
C54   H17   S    
C3    C62   A    
H14   O5    S    
C33   C44   A    
C51   H11   S    
C59   H21   S    
C14   O5    S    
C10   C13   A    
C16   O18   A    
C21   N6    A    
C56   C59   S    
C37   H27   S    
O15   Zn1   S    
C36   C38   A    
C53   H16   S    
C29   C31   A    
C6    C13   A    
C38   C40   A    
C55   H18   S    
C24   C26   A    
C2    C34   A    
C53   O7    D    
C59   O13   D    
C15   O6    S    
O1    Zn1   S    
C43   C46   A    
C41   C54   S    
O17   Zn2   S    
C49   O20   D    
C60   H6    S    
C20   C52   S    
C40   C53   S    
C49   H9    S    
C21   C24   A    
C27   C28   A    
C56   C61   A    
C30   H25   S    
C35   C46   A    
C12   O15   A    
C19   N6    A    
