data_mof_unit_pretest_1607.cif
_audit_creation_date              2012-10-26T20:23:49-0400
_audit_creation_method            fapswitch 2.2
_symmetry_space_group_name_H-M    P1
_symmetry_Int_Tables_number       1
_space_group_crystal_system       triclinic
_cell_length_a                    12.753399
_cell_length_b                    13.903932
_cell_length_c                    15.883026
_cell_angle_alpha                 90.231931
_cell_angle_beta                  92.715212
_cell_angle_gamma                 97.944982
_cell_volume                      2786.09073903

loop_
_atom_site_label
_atom_site_type_symbol
_atom_type_description
_atom_site_fract_x
_atom_site_fract_y
_atom_site_fract_z
_atom_type_partial_charge
C1    C     C_R   0.483569 0.315826 0.499116 0.548992
C2    C     C_1   0.145434 0.480721 0.483014 0.156262
C3    C     C_R   0.500714 0.500050 0.339546 0.548461
C4    C     C_R   0.499286 0.499950 0.660454 0.548462
C5    C     C_3   0.436565 0.420146 0.969990 -0.126649
C6    C     C_3   0.563434 0.579854 0.030009 -0.126649
C7    C     C_3   0.536427 0.421292 0.028887 0.415127
C8    C     C_3   0.463572 0.578708 0.971113 0.415127
C9    C     C_1   0.502056 0.500391 0.249978 0.008752
C10   C     C_1   0.497944 0.499609 0.750022 0.008752
C11   C     C_3   0.400448 0.501125 0.025053 -0.126712
C12   C     C_R   0.516431 0.684174 0.500884 0.548992
C13   C     C_3   0.599552 0.498875 0.974947 -0.126712
C14   C     C_3   0.500903 0.500980 0.082911 -0.004053
C15   C     C_3   0.499097 0.499020 0.917089 -0.004053
C16   C     C_1   0.502024 0.500680 0.174503 0.008361
C17   C     C_1   0.497976 0.499320 0.825497 0.008361
C18   C     C_1   0.525816 0.787517 0.501456 0.004114
C19   C     C_1   0.474184 0.212483 0.498544 0.004113
C20   C     C_2   0.543498 0.978392 0.502574 -0.107448
C21   C     C_2   0.456501 0.021607 0.497426 -0.107447
C22   C     C_1   0.465655 0.125427 0.498011 -0.030809
C23   C     C_1   0.534345 0.874573 0.501989 -0.030809
C24   C     C_2   0.028370 0.473162 0.476333 -0.153928
C25   C     C_2   0.971630 0.526838 0.523667 -0.153928
C26   C     C_1   0.854566 0.519279 0.516986 0.156262
Cu1   Cu    Cu3+1 0.395330 0.493960 0.494680 1.021955
Cu2   Cu    Cu3+1 0.604670 0.506040 0.505320 1.021955
F1    F     F_    0.574353 0.339536 0.060465 -0.595711
F2    F     F_    0.425647 0.660464 0.939535 -0.595711
H1    H     H_    0.385704 0.354144 0.944681 0.144194
H2    H     H_    0.614296 0.645856 0.055319 0.144194
H3    H     H_    0.680838 0.496650 0.953632 0.143687
H4    H     H_    0.319162 0.503350 0.046368 0.143687
H5    H     H_    0.378096 0.979328 0.492748 0.145025
H6    H     H_    0.621904 0.020672 0.507252 0.145025
H7    H     H_    0.013541 0.578504 0.569242 0.137598
H8    H     H_    0.986459 0.421496 0.430758 0.137598
N1    N     N_1   0.238040 0.484880 0.486690 -0.180088
N2    N     N_1   0.761960 0.515120 0.513310 -0.180088
O1    O     O_R   0.399110 0.356330 0.494860 -0.489798
O2    O     O_R   0.600890 0.643670 0.505140 -0.489798
O3    O     O_R   0.575890 0.366540 0.503840 -0.489325
O4    O     O_R   0.424110 0.633460 0.496160 -0.489325
O5    O     O_R   0.411620 0.494890 0.374590 -0.491068
O6    O     O_R   0.588380 0.505110 0.625410 -0.491068
O7    O     O_R   0.588400 0.505100 0.383570 -0.486937
O8    O     O_R   0.411600 0.494900 0.616430 -0.486938

loop_
_geom_bond_atom_site_label_1
_geom_bond_atom_site_label_2
_ccdc_geom_bond_type
Cu1   O8    S    
C24   H8    S    
Cu2   O7    S    
C13   H3    S    
C7    F1    S    
C6    C14   S    
Cu1   O1    S    
Cu2   O3    S    
C6    H2    S    
C20   C23   S    
C26   N2    T    
Cu1   O5    S    
C21   H5    S    
C8    F2    S    
C12   O4    A    
C4    O6    A    
C21   C22   S    
C20   C21   D    
C6    C13   S    
Cu2   O6    S    
C8    C11   S    
C3    C9    S    
C6    C8    S    
C3    O7    A    
C9    C16   T    
C1    O3    A    
C5    C11   S    
C8    C15   S    
C13   C15   S    
C2    C24   S    
C11   C14   S    
C14   C16   S    
C1    C19   S    
C5    C15   S    
Cu2   N2    S    
C10   C17   T    
C4    C10   S    
C18   C23   T    
C20   H6    S    
C7    C13   S    
C19   C22   T    
C24   C25   D    
C5    C7    S    
C4    O8    A    
C12   C18   S    
Cu1   Cu2   S    
C15   C17   S    
C12   O2    A    
Cu2   O2    S    
C25   H7    S    
C25   C26   S    
Cu1   O4    S    
C2    N1    T    
C3    O5    A    
C11   H4    S    
C7    C14   S    
C1    O1    A    
Cu1   N1    S    
C5    H1    S    
