data_mof_unit_pretest_716.cif
_audit_creation_date              2013-03-05T15:42:20-0500
_audit_creation_method            fapswitch 2.2
_symmetry_space_group_name_H-M    P1
_symmetry_Int_Tables_number       1
_space_group_crystal_system       triclinic
_cell_length_a                    16.906333
_cell_length_b                    16.732138
_cell_length_c                    19.661784
_cell_angle_alpha                 116.825021
_cell_angle_beta                  63.520769
_cell_angle_gamma                 100.014382
_cell_volume                      4440.10776083

loop_
_atom_site_label
_atom_site_type_symbol
_atom_site_description
_atom_site_fract_x
_atom_site_fract_y
_atom_site_fract_z
_atom_type_partial_charge
C1    C     C_R   0.016941 0.760394 0.033490 -0.106425
H1    H     H_    0.043669 0.810042 0.075538 0.107322
N1    N     N_R   0.036080 0.671900 0.995420 -0.054083
C2    C     C_R   0.750419 0.457155 0.174364 0.203654
N2    N     N_R   0.834710 0.454650 0.119760 -0.065474
C3    C     C_R   0.821130 0.505617 0.906424 0.201183
N3    N     N_R   0.867430 0.509300 0.948100 -0.066463
C4    C     C_R   0.000220 0.665196 0.243696 -0.106037
H2    H     H_    0.979997 0.641847 0.291930 0.096470
N4    N     N_R   0.003360 0.617250 0.167070 -0.041351
C5    C     C_R   0.750207 0.433017 0.986073 -0.168873
H3    H     H_    0.711088 0.382260 0.003280 0.124010
N5    N     N_R   0.825450 0.461270 0.995400 -0.050064
C6    C     C_R   0.068805 0.742826 0.166593 -0.055653
H4    H     H_    0.110930 0.790423 0.144519 0.083556
N6    N     N_R   0.045340 0.665280 0.119770 -0.047775
C7    C     C_R   0.831432 0.532385 0.248026 -0.155335
H5    H     H_    0.852338 0.565523 0.298514 0.128956
N7    N     N_R   0.883740 0.497640 0.167070 -0.057922
C8    C     C_R   0.936633 0.691676 0.959399 -0.158822
H6    H     H_    0.889170 0.678336 0.933231 0.106056
N8    N     N_R   0.987050 0.628910 0.948110 -0.051890
C9    C     C_R   0.952708 0.775173 0.013805 0.098237
C10   C     C_R   0.747544 0.510729 0.254068 0.046601
C11   C     C_R   0.743562 0.461260 0.932439 0.050576
C12   C     C_R   0.039472 0.744278 0.244042 0.125121
C13   C     C_R   0.259367 0.513483 0.959903 -0.115187
H7    H     H_    0.305479 0.539961 0.917128 0.129682
N9    N     N_R   0.174550 0.538730 0.004600 -0.054454
C14   C     C_R   0.981530 0.248987 0.830107 -0.086740
H8    H     H_    0.957048 0.192730 0.845327 0.163390
N10   N     N_R   0.954660 0.334720 0.880230 -0.034955
C15   C     C_R   0.156800 0.508840 0.760298 -0.118042
H9    H     H_    0.131631 0.486342 0.712988 0.107644
N11   N     N_R   0.116260 0.502360 0.832930 -0.051522
C16   C     C_R   0.025817 0.313857 0.077136 -0.228318
H10   H     H_    0.052703 0.332025 0.122577 0.120723
N12   N     N_R   0.012950 0.371090 0.051890 -0.055764
C17   C     C_R   0.945620 0.246685 0.005610 0.283683
N13   N     N_R   0.963920 0.328100 0.004580 -0.086695
C18   C     C_R   0.234135 0.581376 0.836588 0.256411
N14   N     N_R   0.165290 0.545350 0.880240 -0.067478
C19   C     C_R   0.193936 0.435814 0.036586 -0.124953
H11   H     H_    0.181868 0.390192 0.064786 0.097470
N15   N     N_R   0.132570 0.490700 0.051900 -0.042636
C20   C     C_R   0.049267 0.328325 0.755480 -0.083894
H12   H     H_    0.084147 0.346449 0.703478 0.127856
N16   N     N_R   0.996640 0.382750 0.832930 -0.055283
Ni1   Ni    Ni4+2 0.104370 0.604370 0.000010 0.204985
Ni2   Ni    Ni4+2 0.895630 0.395630 0.999990 0.281797
Ni3   Ni    Ni4+2 0.991920 0.505780 0.891500 0.209293
Ni4   Ni    Ni4+2 0.008080 0.494220 0.108500 0.210634
C21   C     C_R   0.274113 0.446888 0.976861 0.066493
C22   C     C_R   0.040715 0.243630 0.752140 0.036910
C23   C     C_R   0.230572 0.556930 0.761039 0.048613
C24   C     C_R   0.984934 0.234111 0.048963 0.016425
C25   C     C_R   0.116720 0.109423 0.626746 -0.209708
C26   C     C_R   0.044366 0.168615 0.677853 0.069613
C27   C     C_R   0.975668 0.163112 0.655695 -0.142964
C28   C     C_R   0.978300 0.097860 0.579951 -0.087216
C29   C     C_R   0.050236 0.035092 0.527674 0.065793
C30   C     C_R   0.119794 0.041508 0.551315 0.157232
C31   C     C_R   0.912880 0.097146 0.554195 0.217813
C32   C     C_R   0.916427 0.030320 0.477617 0.257824
C33   C     C_R   0.981580 0.959933 0.430407 -0.241477
C34   C     C_R   0.052094 0.965591 0.452782 -0.044448
C35   C     C_R   0.123476 0.900995 0.401691 0.121126
C36   C     C_R   0.193684 0.911407 0.425026 -0.186188
C37   C     C_R   0.191524 0.980789 0.499179 -0.188174
C38   C     C_R   0.976891 0.882703 0.363076 0.346758
C39   C     C_R   0.046512 0.818777 0.314161 -0.170114
C40   C     C_R   0.121658 0.827126 0.329827 0.132799
H13   H     H_    0.169984 0.116828 0.645464 0.149846
H14   H     H_    0.921556 0.212394 0.697595 0.165716
H15   H     H_    0.250684 0.866040 0.387522 0.150907
H16   H     H_    0.245668 0.986314 0.516245 0.147795
C41   C     C_R   0.371633 0.484628 0.651084 0.309105
C42   C     C_R   0.305454 0.549750 0.686386 -0.034760
C43   C     C_R   0.311909 0.609446 0.653171 -0.300726
C44   C     C_R   0.386805 0.606017 0.582941 0.148719
C45   C     C_R   0.456065 0.543514 0.548184 0.001715
C46   C     C_R   0.449161 0.483073 0.582736 -0.061426
C47   C     C_R   0.393291 0.663547 0.546677 -0.178601
C48   C     C_R   0.467459 0.657858 0.474434 -0.175851
C49   C     C_R   0.535990 0.595753 0.439210 0.115682
C50   C     C_R   0.531253 0.539683 0.477256 0.060090
C51   C     C_R   0.600890 0.477932 0.442770 0.137627
C52   C     C_R   0.594891 0.419960 0.478055 -0.186948
C53   C     C_R   0.518852 0.421399 0.546862 -0.099884
C54   C     C_R   0.608415 0.586582 0.365159 -0.220000
C55   C     C_R   0.675402 0.524301 0.331825 0.120313
C56   C     C_R   0.674153 0.472688 0.371214 -0.267603
H17   H     H_    0.258676 0.658208 0.682238 0.149729
H18   H     H_    0.340379 0.711655 0.573305 0.135412
H19   H     H_    0.470977 0.701329 0.445790 0.145586
H20   H     H_    0.612635 0.626570 0.333001 0.145645
H21   H     H_    0.728087 0.424974 0.343119 0.135608
H22   H     H_    0.647978 0.371854 0.451021 0.151613
H23   H     H_    0.515245 0.373512 0.570911 0.193841
C57   C     C_R   0.672131 0.438423 0.903531 0.090216
C58   C     C_R   0.360587 0.403096 0.941668 0.130777
C59   C     C_R   0.458641 0.329042 0.956477 -0.163921
C60   C     C_R   0.373330 0.347203 0.971985 -0.169832
C61   C     C_R   0.434115 0.429141 0.886051 -0.197355
C62   C     C_R   0.518526 0.421569 0.878690 0.065830
C63   C     C_R   0.530180 0.372206 0.916170 0.160226
C64   C     C_R   0.609865 0.375329 0.921715 -0.211806
C65   C     C_R   0.659413 0.487320 0.866967 -0.193013
C66   C     C_R   0.588003 0.472625 0.845605 0.185353
H24   H     H_    0.617926 0.335530 0.948915 0.134067
H25   H     H_    0.702491 0.540341 0.858788 0.152387
H26   H     H_    0.467224 0.289967 0.984310 0.137525
H27   H     H_    0.317898 0.322546 0.012058 0.121177
H28   H     H_    0.424608 0.466355 0.857797 0.146795
C67   C     C_R   0.785207 0.183964 0.216997 -0.033906
C68   C     C_R   0.901889 0.860514 0.053141 0.093304
C69   C     C_R   0.764142 0.937331 0.101088 0.407943
C70   C     C_R   0.816702 0.858949 0.057859 -0.264534
C71   C     C_R   0.935016 0.942710 0.092433 -0.176383
C72   C     C_R   0.884770 0.023813 0.135767 0.045554
C73   C     C_R   0.799172 0.021833 0.137046 -0.172578
C74   C     C_R   0.751790 0.104344 0.175079 0.375346
C75   C     C_R   0.865529 0.185390 0.220423 -0.211028
C76   C     C_R   0.917796 0.106472 0.178961 0.230274
H29   H     H_    0.886564 0.249885 0.254387 0.154816
H30   H     H_    0.787912 0.795504 0.032520 0.153143
H31   H     H_    0.000620 0.942438 0.088714 0.102042
N17   N     N_R   0.876275 0.192253 0.986907 0.224352
O1    O     O_R   0.865395 0.113357 0.986921 -0.375818
O2    O     O_R   0.820983 0.222496 0.973905 -0.431604
C77   C     C_3   0.278352 0.663830 0.877076 -0.439795
C78   C     C_3   0.379184 0.655821 0.831928 -0.847590
H32   H     H_    0.404198 0.591594 0.819726 0.262380
H33   H     H_    0.402259 0.660618 0.771541 0.264080
H34   H     H_    0.407781 0.711590 0.871471 0.258880
H35   H     H_    0.255311 0.722457 0.877572 0.199209
H36   H     H_    0.257618 0.677727 0.943614 0.187363
N18   N     N_R   0.845412 0.166949 0.603376 0.250636
O3    O     O_R   0.845704 0.225136 0.576361 -0.366444
O4    O     O_R   0.781160 0.169561 0.673006 -0.362086
C79   C     C_3   0.680178 0.396032 0.152669 -0.480692
C80   C     C_3   0.632214 0.346114 0.207890 -0.677204
H37   H     H_    0.680031 0.319081 0.217473 0.260393
H38   H     H_    0.581425 0.390385 0.269077 0.238061
H39   H     H_    0.597282 0.289123 0.176692 0.278857
H40   H     H_    0.631336 0.434693 0.154771 0.193606
H41   H     H_    0.713167 0.343055 0.089063 0.254442
N19   N     N_R   0.857417 0.037983 0.446109 0.281522
O5    O     O_R   0.772360 0.045362 0.490975 -0.274582
O6    O     O_R   0.889321 0.048642 0.377159 -0.357177
N20   N     N_R   0.897498 0.863122 0.349289 0.256580
O7    O     O_R   0.825801 0.845600 0.403309 -0.357448
O8    O     O_R   0.898458 0.856062 0.280233 -0.361499
C81   C     C_3   0.196823 0.755932 0.271656 -0.394980
C82   C     C_3   0.274566 0.787671 0.211944 -0.807850
H42   H     H_    0.253386 0.800071 0.171470 0.247899
H43   H     H_    0.300863 0.850272 0.247089 0.269004
H44   H     H_    0.328354 0.735188 0.171177 0.250868
H45   H     H_    0.218550 0.736970 0.308113 0.183738
H46   H     H_    0.175721 0.691821 0.232966 0.195808
N21   N     N_R   0.358442 0.419754 0.684029 0.231809
O9    O     O_R   0.296443 0.362016 0.679750 -0.394000
O10   O     O_R   0.407401 0.419007 0.719299 -0.463831
C83   C     C_3   0.867915 0.514139 0.823862 -0.473220
C84   C     C_3   0.874174 0.426113 0.747764 -0.748220
H47   H     H_    0.895964 0.370087 0.751487 0.248982
H48   H     H_    0.810101 0.409828 0.742874 0.277554
H49   H     H_    0.923081 0.431888 0.689496 0.241025
H50   H     H_    0.838360 0.569000 0.824939 0.185744
H51   H     H_    0.936978 0.533583 0.814455 0.200063
C85   C     C_3   0.580199 0.520605 0.798596 -0.376874
C86   C     C_3   0.667238 0.551953 0.747196 -0.835763
H52   H     H_    0.690965 0.610944 0.788889 0.254735
H53   H     H_    0.718411 0.496810 0.707434 0.269431
H54   H     H_    0.656371 0.572598 0.705579 0.258301
H55   H     H_    0.553184 0.473434 0.753074 0.237734
H56   H     H_    0.533405 0.579203 0.843961 0.192586
N22   N     N_R   0.673192 0.110749 0.167104 0.256683
O11   O     O_R   0.674509 0.080833 0.092947 -0.302676
O12   O     O_R   0.606525 0.161416 0.232147 -0.376819
N23   N     N_R   0.672754 0.927656 0.115399 0.255619
O13   O     O_R   0.651157 0.873794 0.054158 -0.363755
O14   O     O_R   0.611797 0.956684 0.191923 -0.343823
C87   C     C_3   0.007458 0.108753 0.181080 -0.339920
C88   C     C_3   0.034656 0.199925 0.232607 -0.868949
H57   H     H_    0.040932 0.248377 0.206403 0.239421
H58   H     H_    0.985974 0.226093 0.299324 0.279430
H59   H     H_    0.100005 0.192328 0.230072 0.257742
H60   H     H_    0.006942 0.062247 0.207565 0.226626
H61   H     H_    0.059500 0.084614 0.115728 0.179560

loop_
_geom_bond_atom_site_label_1
_geom_bond_atom_site_label_2
_geom_bond_distance
_ccdc_geom_bond_type
C15   C23   1.363753 A    
C14   N10   1.336733 A    
C51   C52   1.393872 A    
C84   H47   1.107221 S    
C82   H43   1.109530 S    
C4    C12   1.371789 A    
C18   N14   1.336708 A    
C59   H26   1.083852 S    
C85   C86   1.531558 S    
N4    Ni4   1.845481 S    
N17   O1    1.300885 A    
N22   O11   1.301237 A    
C25   C26   1.383464 A    
C25   C30   1.387195 A    
N9    Ni1   1.805631 S    
C41   C42   1.403485 A    
C72   C73   1.430938 A    
C36   H15   1.078975 S    
C14   C22   1.377881 A    
C46   C53   1.405495 A    
C53   H23   1.081002 S    
C28   C31   1.403319 A    
C16   C24   1.385120 A    
C83   C84   1.530768 S    
C60   H27   1.081523 S    
N19   O6    1.301261 A    
C43   H17   1.085412 S    
C49   C50   1.414215 A    
C14   H8    1.074810 S    
C2    C10   1.393242 A    
C69   N23   1.434915 S    
C88   H58   1.110866 S    
C3    C11   1.392185 A    
C13   N9    1.326217 A    
C63   C64   1.389556 A    
C5    C11   1.386323 A    
C33   C38   1.393797 A    
C65   C66   1.396471 A    
C37   H16   1.084224 S    
C7    H5    1.079686 S    
C35   C40   1.405140 A    
C25   H13   1.085023 S    
N11   N14   1.395031 A    
C69   C73   1.424668 A    
C18   C23   1.378507 A    
C7    N7    1.319858 A    
C9    C68   1.487523 S    
C83   H51   1.110386 S    
N7    Ni4   1.889980 S    
C19   C21   1.392940 A    
N16   Ni3   1.845481 S    
C47   C48   1.389310 A    
C21   C58   1.471690 S    
C78   H32   1.107330 S    
N20   O7    1.301041 A    
C38   C39   1.398009 A    
C45   C50   1.389827 A    
C86   H54   1.110797 S    
C34   C35   1.423491 A    
C27   C28   1.379209 A    
C58   C60   1.401462 A    
C67   C74   1.391302 A    
C51   C56   1.376115 A    
C32   N19   1.436258 S    
C82   H44   1.110421 S    
C12   C39   1.418592 S    
N10   N16   1.379146 A    
C80   H39   1.110680 S    
C20   C22   1.373558 A    
C83   H50   1.106930 S    
C59   C60   1.393617 A    
C44   C47   1.400001 A    
C29   C34   1.395550 A    
C61   C62   1.391300 A    
N21   O10   1.299802 A    
C86   H53   1.111048 S    
C56   H21   1.086241 S    
N21   O9    1.300821 A    
N23   O14   1.301382 A    
C41   N21   1.438470 S    
C20   N16   1.327339 A    
C57   C65   1.400820 A    
C7    C10   1.366263 A    
C40   C81   1.530599 S    
C31   C32   1.394339 A    
C35   C36   1.411129 A    
N1    Ni1   1.804570 S    
C68   C71   1.400345 A    
C75   C76   1.407442 A    
C67   C75   1.384925 A    
C48   C49   1.398389 A    
C77   H35   1.111298 S    
C55   C56   1.388775 A    
C18   C77   1.508873 S    
C23   C42   1.417137 S    
C42   C43   1.386862 A    
C36   C37   1.383609 A    
C88   H59   1.110513 S    
N15   Ni4   1.888616 S    
C26   C27   1.387454 A    
N23   O13   1.301388 A    
C47   H18   1.083837 S    
C45   C46   1.416401 A    
N5    Ni2   1.805633 S    
C30   C37   1.390537 A    
N9    N15   1.379145 A    
C28   C29   1.412010 A    
C1    N1    1.344541 A    
C48   H19   1.083781 S    
C85   H55   1.110955 S    
C19   H11   1.076446 S    
C81   H46   1.108649 S    
C77   H36   1.110565 S    
C87   H61   1.111467 S    
C11   C57   1.477500 S    
C17   C24   1.388633 A    
C8    C9    1.395834 A    
N3    N5    1.379147 A    
C71   C72   1.414585 A    
C6    C12   1.364833 A    
C15   H9    1.081335 S    
C4    H2    1.080605 S    
N19   O5    1.301349 A    
C54   H20   1.085149 S    
C19   N15   1.346714 A    
C27   H14   1.082930 S    
N10   Ni2   1.916120 S    
C73   C74   1.423230 A    
N18   O4    1.300974 A    
C79   H40   1.110500 S    
C61   H28   1.071818 S    
C78   H33   1.109241 S    
C3    C83   1.518477 S    
C1    C9    1.394560 A    
C84   H49   1.110378 S    
N11   Ni3   1.889978 S    
C31   N18   1.435494 S    
C6    N6    1.325527 A    
N2    Ni2   1.916647 S    
C54   C55   1.389320 A    
C77   C78   1.527947 S    
C10   C55   1.413046 S    
N6    Ni1   1.916120 S    
C86   H52   1.110140 S    
C22   C26   1.415826 S    
C74   N22   1.432581 S    
C62   C66   1.415561 A    
C20   H12   1.079393 S    
C16   H10   1.079935 S    
C57   C64   1.403215 A    
C17   N17   1.431784 S    
C8    H6    1.077341 S    
C50   C51   1.411485 A    
C4    N4    1.330010 A    
C38   N20   1.440063 S    
C8    N8    1.345718 A    
C44   C45   1.413898 A    
N17   O2    1.299854 A    
N22   O12   1.301153 A    
C49   C54   1.384414 A    
C13   C21   1.385988 A    
C76   C87   1.528330 S    
C3    N3    1.340756 A    
N2    N7    1.395031 A    
C58   C61   1.400165 A    
C62   C63   1.414031 A    
C65   H25   1.069081 S    
C64   H24   1.079820 S    
C32   C33   1.419411 A    
C16   N12   1.344822 A    
N3    Ni3   1.888614 S    
C81   H45   1.109056 S    
C2    C79   1.507889 S    
N4    N6    1.379146 A    
C69   C70   1.399212 A    
N12   N13   1.395031 A    
C5    N5    1.340127 A    
C88   H57   1.110086 S    
C41   C46   1.390731 A    
C78   H34   1.110176 S    
N13   Ni2   1.804568 S    
C1    H1    1.077277 S    
N12   Ni4   1.843324 S    
C15   N11   1.327389 A    
C68   C70   1.397631 A    
C59   C63   1.403759 A    
C80   H38   1.108626 S    
N20   O8    1.301559 A    
C29   C30   1.417410 A    
C75   H29   1.079284 S    
N18   O3    1.301056 A    
C79   H41   1.100104 S    
N14   Ni1   1.916647 S    
C43   C44   1.381276 A    
C17   N13   1.350763 A    
C72   C76   1.428296 A    
C81   C82   1.527049 S    
C2    N2    1.342013 A    
C39   C40   1.405993 A    
C52   C53   1.383438 A    
C84   H48   1.106108 S    
C33   C34   1.419348 A    
C82   H42   1.110620 S    
C80   H37   1.110642 S    
C6    H4    1.081155 S    
C85   H56   1.110847 S    
N1    N8    1.395031 A    
C87   C88   1.530221 S    
C70   H30   1.082253 S    
C79   C80   1.527031 S    
C87   H60   1.111784 S    
C52   H22   1.084268 S    
C66   C85   1.526935 S    
C5    H3    1.066572 S    
N8    Ni3   1.843324 S    
C13   H7    1.069055 S    
C71   H31   1.079194 S    
