data_mof_unit_pretest_1401.cif
_audit_creation_date              2012-12-11T17:41:19-0500
_audit_creation_method            fapswitch 2.2
_symmetry_space_group_name_H-M    P1
_symmetry_Int_Tables_number       1
_space_group_crystal_system       triclinic
_cell_length_a                    15.456891
_cell_length_b                    15.175929
_cell_length_c                    15.112808
_cell_angle_alpha                 109.729822
_cell_angle_beta                  121.368504
_cell_angle_gamma                 59.492655
_cell_volume                      2594.87523808

loop_
_atom_site_label
_atom_site_type_symbol
_atom_type_description
_atom_site_fract_x
_atom_site_fract_y
_atom_site_fract_z
_atom_type_partial_charge
C1    C     C_R   0.801311 0.940014 0.774487 0.013659
C2    C     C_R   0.240148 0.011035 0.209161 -0.062085
C3    C     C_R   0.137103 0.268783 0.478522 0.045401
C4    C     C_R   0.795825 0.702381 0.441675 -0.007991
C5    C     C_R   0.504815 0.322365 0.537266 -0.016961
C6    C     C_R   0.491990 0.699990 0.552841 -0.094614
C7    C     C_R   0.496578 0.953584 0.807127 -0.048533
C8    C     C_R   0.505284 0.060993 0.201292 0.049560
C9    C     C_R   0.518531 0.637371 0.874594 -0.294302
C10   C     C_R   0.526911 0.354517 0.162711 -0.100991
C11   C     C_R   0.492235 0.742231 0.912045 0.570898
C12   C     C_R   0.545254 0.251741 0.123725 0.532676
C13   C     C_R   0.554403 0.789909 0.919081 0.042246
C14   C     C_R   0.462057 0.217941 0.093879 -0.059765
C15   C     C_R   0.645182 0.729209 0.893388 -0.284574
C16   C     C_R   0.360614 0.290305 0.097820 -0.136298
C17   C     C_R   0.669163 0.625984 0.854921 -0.096053
C18   C     C_R   0.344538 0.392011 0.138180 -0.138887
C19   C     C_R   0.605726 0.580226 0.845178 -0.093934
C20   C     C_R   0.427920 0.423881 0.171386 -0.209531
C21   C     C_R   0.537853 0.929985 0.063824 0.540776
C22   C     C_R   0.464448 0.082665 0.944073 0.501692
C23   C     C_R   0.199199 0.271543 0.440152 -0.033356
C24   C     C_R   0.761982 0.712626 0.515111 -0.063884
C25   C     C_R   0.507317 0.034836 0.102410 -0.083544
C26   C     C_R   0.493299 0.978226 0.904977 -0.122031
C27   C     C_R   0.473980 0.111439 0.045374 -0.195367
C28   C     C_R   0.530513 0.900231 0.963119 -0.168854
C29   C     C_2   0.020192 0.337931 0.448971 0.330664
C30   C     C_2   0.872300 0.604140 0.409980 0.367501
C31   C     C_2   0.997204 0.438034 0.476766 0.348405
C32   C     C_2   0.883226 0.517169 0.427988 0.360258
C33   C     C_2   0.982476 0.956902 0.850229 -0.289557
C34   C     C_2   0.142244 0.892755 0.097589 -0.283457
C35   C     C_R   0.270354 0.857220 0.708935 -0.066061
C36   C     C_R   0.702303 0.192619 0.357697 -0.104511
C37   C     C_R   0.351028 0.775675 0.678079 -0.106058
C38   C     C_R   0.625097 0.274797 0.392295 -0.232660
C39   C     C_R   0.329602 0.692403 0.608851 -0.057392
C40   C     C_R   0.660233 0.338528 0.483089 0.009698
C41   C     C_R   0.220741 0.696237 0.565436 0.527779
C42   C     C_R   0.775136 0.320287 0.536912 0.560942
C43   C     C_R   0.142078 0.777227 0.599554 -0.122956
C44   C     C_R   0.849755 0.240374 0.497692 -0.131470
C45   C     C_R   0.594230 0.229475 0.553972 0.514130
C46   C     C_R   0.403390 0.782291 0.500851 0.499949
C47   C     C_R   0.166791 0.857152 0.671138 -0.210543
C48   C     C_R   0.813829 0.176284 0.409191 -0.154666
C49   C     C_R   0.434880 0.504166 0.584899 -0.266312
C50   C     C_R   0.566050 0.520807 0.522605 -0.270769
C51   C     C_R   0.509766 0.417439 0.551179 0.111958
C52   C     C_R   0.491675 0.607699 0.555919 0.093318
C53   C     C_R   0.577290 0.425173 0.519958 0.036608
C54   C     C_R   0.420344 0.601824 0.583627 0.016875
C55   C     C_2   0.050148 0.877526 0.909077 0.375007
C56   C     C_2   0.143856 0.888660 0.007942 0.382975
C57   C     C_R   0.405558 0.996023 0.718286 -0.078576
C58   C     C_R   0.594933 0.011260 0.286263 -0.182966
C59   C     C_R   0.409493 0.304785 0.473054 -0.236724
C60   C     C_R   0.587489 0.711053 0.583047 -0.219642
C61   C     C_R   0.590100 0.928927 0.796674 0.536249
C62   C     C_R   0.411969 0.084346 0.210577 0.561784
C63   C     C_R   0.197189 0.181250 0.529027 -0.115928
C64   C     C_R   0.761255 0.801061 0.420989 -0.107883
C65   C     C_R   0.807916 0.023648 0.685034 -0.075316
C66   C     C_R   0.237764 0.919922 0.296579 -0.157458
C67   C     C_R   0.867389 0.974812 0.774285 0.129138
C68   C     C_R   0.206656 0.937453 0.197396 0.184884
H1    H     H_    0.827893 0.885646 0.823690 0.212254
H2    H     H_    0.224101 0.046124 0.148144 0.182172
H3    H     H_    0.083654 0.872103 0.096159 0.119618
H4    H     H_    0.007230 0.018391 0.867125 0.128361
H5    H     H_    0.624715 0.500104 0.815581 0.150212
H6    H     H_    0.415172 0.502852 0.202352 0.152886
H7    H     H_    0.470664 0.600205 0.867138 0.140173
H8    H     H_    0.590389 0.380548 0.187184 0.175361
H9    H     H_    0.738312 0.580925 0.834097 0.138710
H10   H     H_    0.266437 0.446680 0.141930 0.142256
H11   H     H_    0.105038 0.919770 0.696330 0.135618
H12   H     H_    0.872740 0.113373 0.380841 0.141515
H13   H     H_    0.169022 0.320731 0.383469 0.113464
H14   H     H_    0.780931 0.653568 0.554967 0.132663
H15   H     H_    0.289008 0.919626 0.764160 0.139374
H16   H     H_    0.675771 0.141598 0.290196 0.133251
H17   H     H_    0.431222 0.776783 0.709705 0.129053
H18   H     H_    0.538369 0.287305 0.349732 0.151321
H19   H     H_    0.060150 0.779386 0.568307 0.133819
H20   H     H_    0.936904 0.226319 0.537751 0.140682
H21   H     H_    0.324543 0.360991 0.440019 0.164289
H22   H     H_    0.671906 0.663804 0.632423 0.146303
H23   H     H_    0.847995 0.036681 0.653000 0.107178
H24   H     H_    0.218823 0.869415 0.312026 0.170991
N1    N     N_R   0.705410 0.966550 0.689210 -0.065027
N2    N     N_R   0.294590 0.033450 0.310790 -0.080343
N3    N     N_R   0.294590 0.188320 0.465660 -0.054638
N4    N     N_R   0.705410 0.811680 0.534340 -0.049817
N5    N     N_R   0.556610 0.157790 0.497330 -0.108296
N6    N     N_R   0.443390 0.842210 0.502670 -0.070838
N7    N     N_R   0.443390 0.997080 0.657540 -0.069292
N8    N     N_R   0.556610 0.002920 0.342460 -0.054612
N9    N     N_R   0.443390 0.203250 0.451380 -0.077232
N10   N     N_R   0.556610 0.796750 0.548620 -0.068291
N11   N     N_R   0.556610 0.951620 0.703500 -0.076242
N12   N     N_R   0.443390 0.048380 0.296500 -0.101958
N13   N     N_R   0.294590 0.131500 0.522480 -0.035723
N14   N     N_R   0.705410 0.868500 0.477520 -0.045146
N15   N     N_R   0.705410 0.023370 0.632390 -0.058264
N16   N     N_R   0.294590 0.976630 0.367610 -0.041971
Ni1   Ni    Ni4+2 0.629830 0.882720 0.617850 0.244787
Ni2   Ni    Ni4+2 0.370170 0.117280 0.382150 0.203996
Ni3   Ni    Ni4+2 0.629830 0.013030 0.487540 0.200473
Ni4   Ni    Ni4+2 0.370170 0.986970 0.512460 0.255424
O1    O     O_3   0.405544 0.799665 0.940520 -0.724424
H25   H     H_    0.371530 0.754719 0.931175 0.324956
O2    O     O_3   0.645016 0.188053 0.116738 -0.740123
H26   H     H_    0.653015 0.116130 0.097523 0.311954
H27   H     H_    0.700336 0.759584 0.905720 0.182912
H28   H     H_    0.292152 0.269174 0.066064 0.205466
O3    O     O_3   0.572576 0.858907 0.126541 -0.719463
H29   H     H_    0.626270 0.791845 0.109394 0.317049
O4    O     O_3   0.433183 0.153182 0.882380 -0.733306
H30   H     H_    0.392623 0.223749 0.907730 0.329697
O5    O     O_3   0.792170 0.511380 0.418745 -0.761703
H31   H     H_    0.819196 0.454281 0.457130 0.345817
O6    O     O_3   0.083556 0.466914 0.550562 -0.732009
H32   H     H_    0.051786 0.540350 0.575958 0.330521
O7    O     O_3   0.952248 0.600382 0.390253 -0.726507
H33   H     H_    0.939559 0.671326 0.390779 0.328290
O8    O     O_3   0.937288 0.304149 0.379387 -0.758108
H34   H     H_    0.973054 0.228426 0.365292 0.320292
O9    O     O_3   0.186589 0.624914 0.487838 -0.740693
H35   H     H_    0.232247 0.593505 0.448625 0.310662
O10   O     O_3   0.818620 0.376099 0.628735 -0.773278
H36   H     H_    0.765613 0.413575 0.660526 0.324920
H37   H     H_    0.384526 0.495335 0.608498 0.180096
H38   H     H_    0.615343 0.527361 0.495677 0.173630
O11   O     O_3   0.703480 0.214160 0.606252 -0.772667
H39   H     H_    0.738954 0.159682 0.562001 0.294721
O12   O     O_3   0.292553 0.810250 0.467819 -0.795009
H40   H     H_    0.280700 0.746198 0.439542 0.300600
H41   H     H_    0.318605 0.025548 0.700011 0.121618
H42   H     H_    0.681969 0.982977 0.305511 0.113664
O13   O     O_3   0.696957 0.906703 0.873280 -0.804592
H43   H     H_    0.696514 0.917264 0.941396 0.309139
O14   O     O_3   0.307549 0.154891 0.156548 -0.795539
H44   H     H_    0.266257 0.180805 0.199298 0.294021
H45   H     H_    0.165828 0.149082 0.553975 0.100284
H46   H     H_    0.777005 0.821293 0.370398 0.108849
O15   O     O_3   0.221812 0.908941 0.008556 -0.722075
H47   H     H_    0.205619 0.906601 0.935334 0.329016
O16   O     O_3   0.025410 0.794147 0.884249 -0.765341
H48   H     H_    0.086297 0.744279 0.936182 0.315582

loop_
_geom_bond_atom_site_label_1
_geom_bond_atom_site_label_2
_ccdc_geom_bond_type
C33   C55   D    
N7    N11   A    
C55   C56   S    
C34   C56   D    
C66   C68   A    
C47   H11   S    
C35   C47   A    
O14   H44   S    
C4    C30   S    
O5    H31   S    
C39   C41   A    
N2    N16   A    
C7    C26   S    
C38   H18   S    
C42   O10   S    
C37   H17   S    
C61   N11   A    
O1    H25   S    
C2    C68   A    
C24   N4    A    
N5    Ni3   S    
C39   C54   S    
O13   H43   S    
C57   N7    A    
N8    N12   A    
C65   H23   S    
C59   H21   S    
C3    C29   S    
C3    C23   A    
C24   H14   S    
C7    C61   A    
N4    N14   A    
N3    N13   A    
C33   H4    S    
C8    C58   A    
C10   H8    S    
C9    C19   A    
C29   O8    S    
C10   C20   A    
C49   C51   A    
C62   O14   S    
C50   C52   A    
O16   H48   S    
C13   C28   S    
C14   C27   S    
C63   N13   A    
C6    C46   A    
C12   O2    S    
C65   N15   A    
C40   C42   A    
C46   N6    A    
C38   C40   A    
C64   H46   S    
C8    C25   S    
C41   C43   A    
C32   O5    S    
C42   C44   A    
C60   N10   A    
C63   H45   S    
C52   C54   A    
C62   N12   A    
N14   Ni3   S    
O12   H40   S    
C50   C53   A    
N6    Ni4   S    
C5    C59   A    
C59   N9    A    
C6    C60   A    
C2    N2    A    
C58   N8    A    
C34   C68   S    
C41   O9    S    
C35   H15   S    
C17   C19   A    
C66   H24   S    
C65   C67   A    
N9    Ni2   S    
N6    N10   A    
C5    C45   A    
N2    Ni2   S    
C1    H1    S    
C15   H27   S    
C51   C53   A    
C16   H28   S    
C17   H9    S    
C58   H42   S    
C31   C32   S    
C19   H5    S    
C18   H10   S    
C45   O11   S    
C20   H6    S    
C16   C18   A    
C55   O16   S    
C44   C48   A    
C9    C11   A    
O4    H30   S    
C10   C12   A    
C1    N1    A    
C21   C28   A    
C12   C14   A    
C60   H22   S    
C22   C27   A    
C13   C15   A    
O10   H36   S    
C14   C16   A    
C31   O6    S    
O7    H33   S    
N12   Ni2   S    
C22   O4    S    
O8    H34   S    
O11   H39   S    
C15   C17   A    
C21   C25   A    
C30   O7    S    
C21   O3    S    
C23   H13   S    
C35   C37   A    
N15   Ni3   S    
N13   Ni4   S    
C66   N16   A    
N3    Ni2   S    
O3    H29   S    
C64   N14   A    
C3    C63   A    
C25   C27   A    
N4    Ni1   S    
C4    C64   A    
C26   C28   A    
C57   H41   S    
N11   Ni1   S    
C43   H19   S    
C48   H12   S    
C61   O13   S    
C37   C39   A    
C33   C67   S    
C50   H38   S    
O15   H47   S    
N1    N15   A    
C30   C32   D    
C11   C13   A    
O2    H26   S    
O6    H32   S    
C36   H16   S    
C4    C24   A    
N7    Ni4   S    
C36   C38   A    
C1    C67   A    
C23   N3    A    
C36   C48   A    
C18   C20   A    
C49   H37   S    
O9    H35   S    
C11   O1    S    
C44   H20   S    
N16   Ni4   S    
N8    Ni3   S    
C29   C31   D    
C40   C53   S    
C22   C26   A    
N1    Ni1   S    
C5    C51   S    
N10   Ni1   S    
C45   N5    A    
C9    H7    S    
C6    C52   S    
C56   O15   S    
C2    H2    S    
C43   C47   A    
C34   H3    S    
C7    C57   A    
N5    N9    A    
C49   C54   A    
C8    C62   A    
C46   O12   S    
