data_mof_unit_pretest_1898.cif
_audit_creation_date              2012-12-11T17:18:17-0500
_audit_creation_method            fapswitch 2.2
_symmetry_space_group_name_H-M    P1
_symmetry_Int_Tables_number       1
_space_group_crystal_system       triclinic
_cell_length_a                    7.274887
_cell_length_b                    12.007198
_cell_length_c                    27.93405
_cell_angle_alpha                 90.000025
_cell_angle_beta                  92.120125
_cell_angle_gamma                 89.999962
_cell_volume                      2438.39712177

loop_
_atom_site_label
_atom_site_type_symbol
_atom_type_description
_atom_site_fract_x
_atom_site_fract_y
_atom_site_fract_z
_atom_type_partial_charge
O1    O     O_R   0.366550 0.651960 0.572490 -0.531253
O2    O     O_R   0.633450 0.348040 0.427510 -0.531241
O3    O     O_R   0.133450 0.151960 0.427510 -0.531240
O4    O     O_R   0.866550 0.848040 0.572490 -0.531254
O5    O     O_R   0.712370 0.639230 0.672140 -0.536989
O6    O     O_R   0.287630 0.360770 0.327860 -0.537160
O7    O     O_R   0.787630 0.139230 0.327860 -0.537160
O8    O     O_R   0.212370 0.860770 0.672140 -0.536990
O9    O     O_R   0.882770 0.848480 0.672480 -0.532667
O10   O     O_R   0.117230 0.151520 0.327520 -0.532656
O11   O     O_R   0.617230 0.348480 0.327520 -0.532657
O12   O     O_R   0.382770 0.651520 0.672480 -0.532665
C1    C     C_R   0.546074 0.611296 0.687216 0.692628
C2    C     C_R   0.453942 0.388631 0.312741 0.692684
C3    C     C_R   0.953941 0.111370 0.312741 0.692684
C4    C     C_R   0.046074 0.888705 0.687215 0.692630
O13   O     O_R   0.696320 0.639050 0.572850 -0.536089
O14   O     O_R   0.303680 0.360950 0.427150 -0.536044
O15   O     O_R   0.803680 0.139050 0.427150 -0.536044
O16   O     O_R   0.196320 0.860950 0.572850 -0.536090
C5    C     C_R   0.525297 0.613013 0.556501 0.716841
C6    C     C_R   0.474702 0.386986 0.443499 0.717020
C7    C     C_R   0.974703 0.113014 0.443499 0.717021
C8    C     C_R   0.025297 0.886987 0.556501 0.716840
O17   O     O_3   0.541150 0.818870 0.622480 -0.374233
O18   O     O_3   0.458850 0.181130 0.377520 -0.374241
O19   O     O_3   0.958850 0.318870 0.377520 -0.374242
O20   O     O_3   0.041150 0.681130 0.622480 -0.374231
V1    V     V_3+5 0.815990 0.737490 0.622490 1.428278
V2    V     V_3+5 0.184010 0.262510 0.377510 1.428135
V3    V     V_3+5 0.684010 0.237490 0.377510 1.428135
V4    V     V_3+5 0.315990 0.762510 0.622490 1.428277
C9    C     C_R   0.062419 0.173303 0.884563 0.541993
C10   C     C_R   0.954924 0.828899 0.114614 0.541040
C11   C     C_R   0.454938 0.671113 0.114617 0.541037
C12   C     C_R   0.562427 0.326716 0.884571 0.541984
O21   O     O_2   0.089779 0.063300 0.891744 -0.548136
O22   O     O_2   0.926469 0.938782 0.107310 -0.547180
O23   O     O_2   0.426487 0.561230 0.107311 -0.547181
O24   O     O_2   0.589806 0.436717 0.891752 -0.548135
N1    N     N_R   0.040562 0.214413 0.838904 -0.540868
N2    N     N_R   0.968610 0.787295 0.160346 -0.540646
N3    N     N_R   0.468613 0.712715 0.160349 -0.540644
N4    N     N_R   0.540569 0.285605 0.838912 -0.540870
C13   C     C_R   0.023996 0.327355 0.831620 0.540691
C14   C     C_R   0.983266 0.674197 0.167555 0.539018
C15   C     C_R   0.483268 0.825812 0.167561 0.539033
C16   C     C_R   0.523986 0.172665 0.831629 0.540690
C17   C     C_R   0.138534 0.153817 0.757844 -0.055440
C18   C     C_R   0.863726 0.847317 0.241004 -0.057683
C19   C     C_R   0.363719 0.652686 0.241005 -0.057698
C20   C     C_R   0.638535 0.346191 0.757850 -0.055453
C21   C     C_R   0.144080 0.073006 0.721677 -0.200055
C22   C     C_R   0.856110 0.927685 0.277349 -0.200913
C23   C     C_R   0.356104 0.572317 0.277350 -0.200922
C24   C     C_R   0.644073 0.426995 0.721680 -0.200047
C25   C     C_R   0.929384 0.959640 0.764096 -0.204522
C26   C     C_R   0.073117 0.041605 0.236031 -0.205128
C27   C     C_R   0.573129 0.458405 0.236034 -0.205118
C28   C     C_R   0.429409 0.540377 0.764101 -0.204519
C29   C     C_R   0.925431 0.039595 0.800378 -0.067713
C30   C     C_R   0.079519 0.962019 0.199675 -0.064834
C31   C     C_R   0.579529 0.537993 0.199678 -0.064825
C32   C     C_R   0.425457 0.460428 0.800386 -0.067702
C33   C     C_R   0.033171 0.136934 0.798593 0.313651
C34   C     C_R   0.971810 0.864610 0.200758 0.313616
C35   C     C_R   0.471811 0.635397 0.200761 0.313605
C36   C     C_R   0.533184 0.363084 0.798601 0.313658
C37   C     C_R   0.033106 0.359564 0.918015 -0.065268
C38   C     C_R   0.988229 0.642919 0.081190 -0.065005
C39   C     C_R   0.488239 0.857096 0.081196 -0.065006
C40   C     C_R   0.533097 0.140457 0.918023 -0.065276
C41   C     C_R   0.059612 0.244280 0.924388 -0.027057
C42   C     C_R   0.967080 0.758584 0.074792 -0.027539
C43   C     C_R   0.467106 0.741430 0.074797 -0.027541
C44   C     C_R   0.559602 0.255740 0.924397 -0.027041
C45   C     C_R   0.082267 0.200851 0.970565 -0.117704
C46   C     C_R   0.962100 0.803286 0.028638 -0.117427
C47   C     C_R   0.462175 0.696729 0.028642 -0.117420
C48   C     C_R   0.582222 0.299172 0.970573 -0.117701
C49   C     C_R   0.013285 0.402746 0.870912 -0.026794
C50   C     C_R   0.998478 0.599088 0.128299 -0.025351
C51   C     C_R   0.498481 0.900924 0.128306 -0.025356
C52   C     C_R   0.513270 0.097274 0.870920 -0.026802
C53   C     C_R   0.040877 0.974734 0.724865 -0.059768
C54   C     C_R   0.959605 0.025993 0.274806 -0.060307
C55   C     C_R   0.459607 0.474011 0.274808 -0.060308
C56   C     C_R   0.540881 0.525271 0.724867 -0.059763
H1    H     H_    0.849611 0.884055 0.767301 0.119447
H2    H     H_    0.153255 0.117186 0.233324 0.119821
H3    H     H_    0.653277 0.382827 0.233328 0.119823
H4    H     H_    0.349650 0.615968 0.767307 0.119439
H5    H     H_    0.840926 0.024029 0.830614 0.146851
H6    H     H_    0.166508 0.977734 0.169947 0.148139
H7    H     H_    0.666525 0.522280 0.169951 0.148145
H8    H     H_    0.340962 0.476001 0.830623 0.146846
H9    H     H_    0.105693 0.112670 0.976429 0.161803
H10   H     H_    0.949816 0.892262 0.022790 0.162908
H11   H     H_    0.449936 0.607751 0.022793 0.162899
H12   H     H_    0.605619 0.387356 0.976437 0.161796
C57   C     C_R   0.025704 0.455837 0.046636 0.003571
C58   C     C_R   0.996906 0.546624 0.952620 -0.001923
C59   C     C_R   0.496889 0.953399 0.952628 -0.001967
C60   C     C_R   0.525711 0.044180 0.046645 0.003557
C61   C     C_R   0.990525 0.618123 0.993382 0.035695
C62   C     C_R   0.042216 0.385092 0.005882 0.034363
C63   C     C_R   0.542203 0.114928 0.005891 0.034362
C64   C     C_R   0.490542 0.881897 0.993390 0.035691
C65   C     C_R   0.001200 0.571951 0.040312 0.072605
C66   C     C_R   0.024623 0.430789 0.958928 0.068581
C67   C     C_R   0.524616 0.069232 0.958937 0.068571
C68   C     C_R   0.501206 0.928067 0.040319 0.072612
C69   C     C_R   0.033945 0.413833 0.093794 -0.131037
C70   C     C_R   0.971816 0.587403 0.905513 -0.128660
C71   C     C_R   0.471737 0.912624 0.905522 -0.128637
C72   C     C_R   0.533986 0.086179 0.093803 -0.130996
C73   C     C_R   0.026281 0.482373 0.134152 0.182278
C74   C     C_R   0.979372 0.518907 0.865127 0.184142
C75   C     C_R   0.479328 0.981116 0.865136 0.184165
C76   C     C_R   0.526286 0.017639 0.134161 0.182281
O25   O     O_2   0.982324 0.634459 0.212522 -0.560806
O26   O     O_2   0.018602 0.366603 0.786536 -0.560146
O27   O     O_2   0.518576 0.133416 0.786545 -0.560152
O28   O     O_2   0.482332 0.865545 0.212528 -0.560800
C77   C     C_R   0.075652 0.269325 0.010327 -0.167718
C78   C     C_R   0.975298 0.735213 0.988922 -0.171343
C79   C     C_R   0.475383 0.764806 0.988927 -0.171348
C80   C     C_R   0.575591 0.230701 0.010335 -0.167732
H13   H     H_    0.768909 0.913257 0.307328 0.137799
H14   H     H_    0.229707 0.086988 0.691347 0.136631
H15   H     H_    0.729688 0.413005 0.691348 0.136629
H16   H     H_    0.268896 0.586741 0.307328 0.137801
H17   H     H_    0.778779 0.773939 0.243674 0.181000
H18   H     H_    0.223415 0.227135 0.754732 0.179475
H19   H     H_    0.723408 0.272870 0.754739 0.179464
H20   H     H_    0.278767 0.726062 0.243675 0.180999
H21   H     H_    0.047622 0.326251 0.100730 0.114449
H22   H     H_    0.939128 0.673349 0.898809 0.115422
H23   H     H_    0.438962 0.826688 0.898822 0.115433
H24   H     H_    0.547720 0.173755 0.100742 0.114445
H25   H     H_    0.098777 0.227381 0.044001 0.128416
H26   H     H_    0.976593 0.778614 0.955265 0.130661
H27   H     H_    0.476760 0.721411 0.955269 0.130668
H28   H     H_    0.598657 0.272655 0.044009 0.128417
C81   C     C_1   0.991602 0.033108 0.483333 -0.176779
C82   C     C_1   0.008398 0.966894 0.516668 -0.176744
C83   C     C_1   0.508398 0.533106 0.516668 -0.176744
C84   C     C_1   0.491602 0.466892 0.483333 -0.176779
C85   C     C_3   0.059397 0.426552 0.182286 -0.687617
H29   H     H_    0.938549 0.434876 0.204741 0.218039
H30   H     H_    0.087386 0.335929 0.179216 0.168460
H31   H     H_    0.181656 0.463562 0.200609 0.246679
C86   C     C_3   0.939873 0.573863 0.817090 -0.685346
H32   H     H_    0.059182 0.566545 0.793967 0.218352
H33   H     H_    0.817283 0.535320 0.799576 0.247692
H34   H     H_    0.909850 0.664241 0.820147 0.167180
C87   C     C_3   0.439840 0.926160 0.817099 -0.685350
H35   H     H_    0.559152 0.933485 0.793977 0.218353
H36   H     H_    0.409841 0.835778 0.820156 0.167173
H37   H     H_    0.317244 0.964691 0.799585 0.247696
C88   C     C_3   0.559349 0.073464 0.182297 -0.687655
H38   H     H_    0.438499 0.065104 0.204748 0.218062
H39   H     H_    0.681630 0.036488 0.200622 0.246673
H40   H     H_    0.587259 0.164097 0.179229 0.168448

loop_
_geom_bond_atom_site_label_1
_geom_bond_atom_site_label_2
_ccdc_geom_bond_type
C26   C30   A    
N4    C16   A    
C17   H18   S    
O1    C5    A    
C87   H35   S    
O13   V1    S    
O3    C7    A    
C83   C84   T    
C10   N2    A    
C40   C44   A    
O15   V3    S    
C16   O27   S    
C88   H38   S    
C28   C56   A    
C7    C81   S    
C62   C77   A    
C11   C43   A    
C18   C22   A    
C17   C33   A    
C61   C78   A    
C58   C61   A    
C32   C36   A    
C47   H11   S    
O20   V1    S    
O9    C4    A    
C63   C80   A    
O10   C3    A    
C85   H30   S    
O16   V4    S    
O4    C8    A    
O11   C2    A    
C29   H5    S    
C24   C56   A    
C57   C65   A    
C31   H7    S    
C57   C69   A    
C74   C86   S    
C59   C67   A    
C37   C66   A    
C61   C65   A    
C12   C44   A    
C60   C72   A    
O16   C8    A    
C77   H25   S    
C46   H10   S    
C14   O25   S    
C45   H9    S    
C59   C64   A    
O14   V2    S    
C15   C51   A    
C86   H33   S    
C11   N3    A    
O5    V1    S    
O4    V1    S    
C20   C36   A    
C12   N4    A    
O9    V1    S    
C64   C68   A    
O17   V4    S    
O7    C3    A    
C40   C67   A    
O11   V3    S    
O18   V3    S    
C87   H36   S    
C14   C50   A    
C48   H12   S    
O19   V2    S    
C63   C67   A    
C26   C54   A    
C88   H39   S    
C81   C82   T    
C39   C51   A    
C28   H4    S    
C31   C35   A    
C40   C52   A    
O7    V3    S    
C30   C34   A    
O8    V4    S    
C12   O24   S    
C32   H8    S    
C27   C55   A    
C85   H31   S    
C60   C68   A    
O15   C7    A    
N1    C33   S    
C48   C80   A    
C49   C74   A    
C78   H26   S    
O1    V4    S    
O13   C5    A    
C16   C52   A    
O2    V3    S    
C51   C76   A    
O3    V2    S    
C11   O23   S    
N3    C35   S    
C38   C42   A    
C59   C71   A    
C58   C70   A    
C38   C65   A    
C29   C33   A    
O6    C2    A    
C26   H2    S    
C19   H20   S    
O10   V2    S    
C75   C87   S    
C39   C68   A    
C58   C66   A    
C79   H27   S    
C86   H34   S    
C37   C41   A    
C18   C34   A    
C70   C74   A    
C25   H1    S    
C76   C88   S    
C10   C42   A    
C3    C54   S    
C69   C73   A    
C9    C41   A    
O6    V2    S    
C6    C84   S    
C87   H37   S    
C71   C75   A    
C30   H6    S    
N2    C14   A    
C4    C53   S    
C69   H21   S    
C27   H3    S    
N4    C36   S    
C46   C78   A    
C5    C83   S    
C88   H40   S    
C45   C77   A    
C22   C54   A    
C62   C66   A    
C57   C62   A    
C22   H13   S    
C47   C79   A    
N1    C13   A    
C10   O22   S    
O5    C1    A    
C13   C49   A    
C44   C48   A    
C71   H23   S    
C18   H17   S    
C2    C55   S    
C73   C85   S    
C25   C29   A    
C13   O26   S    
C27   C31   A    
C80   H28   S    
C28   C32   A    
C9    N1    A    
O14   C6    A    
C8    C82   S    
O2    C6    A    
C39   C43   A    
C15   O28   S    
C19   C35   A    
C43   C47   A    
C52   C75   A    
C17   C21   A    
C1    C56   S    
C25   C53   A    
C19   C23   A    
C70   H22   S    
C64   C79   A    
C23   C55   A    
C38   C50   A    
C9    O21   S    
C24   H15   S    
C37   C49   A    
C72   C76   A    
O12   C1    A    
O8    C4    A    
C23   H16   S    
C42   C46   A    
N2    C34   S    
C20   H19   S    
C41   C45   A    
C21   C53   A    
C21   H14   S    
C50   C73   A    
C86   H32   S    
C85   H29   S    
N3    C15   A    
C60   C63   A    
O12   V4    S    
C20   C24   A    
C72   H24   S    
