data_mof_unit_pretest_808.cif
_audit_creation_date              2013-03-05T15:45:02-0500
_audit_creation_method            fapswitch 2.2
_symmetry_space_group_name_H-M    P1
_symmetry_Int_Tables_number       1
_space_group_crystal_system       triclinic
_cell_length_a                    9.906584
_cell_length_b                    11.052428
_cell_length_c                    12.979052
_cell_angle_alpha                 90.804504
_cell_angle_beta                  75.150392
_cell_angle_gamma                 111.604283
_cell_volume                      1272.0272351

loop_
_atom_site_label
_atom_site_type_symbol
_atom_site_description
_atom_site_fract_x
_atom_site_fract_y
_atom_site_fract_z
_atom_type_partial_charge
O1    O     O_R   0.578710 0.332530 0.490040 -0.562651
O2    O     O_R   0.421290 0.667470 0.509960 -0.565955
O3    O     O_R   0.329810 0.295070 0.521560 -0.588443
O4    O     O_R   0.670190 0.704930 0.478440 -0.588864
C1    C     C_R   0.439251 0.253791 0.507753 0.875537
C2    C     C_R   0.560729 0.746197 0.492242 0.880020
O5    O     O_R   0.604230 0.515670 0.637800 -0.599538
O6    O     O_R   0.395770 0.484330 0.362200 -0.594529
O7    O     O_R   0.355330 0.478200 0.669330 -0.542996
O8    O     O_R   0.644670 0.521800 0.330670 -0.558794
C3    C     C_R   0.474423 0.501481 0.702382 0.841185
C4    C     C_R   0.525552 0.498457 0.297620 0.850367
Cu1   Cu    Cu3+1 0.647370 0.522180 0.481340 0.984705
Cu2   Cu    Cu3+1 0.352630 0.477820 0.518660 0.988345
C5    C     C_R   0.537304 0.489168 0.183690 -0.169602
C6    C     C_R   0.462559 0.510604 0.816323 -0.170602
C7    C     C_R   0.347427 0.556463 0.993265 -0.212072
C8    C     C_R   0.652284 0.443114 0.006772 -0.211993
C9    C     C_R   0.356259 0.554506 0.884134 0.335956
C10   C     C_R   0.643405 0.445024 0.115915 0.333652
C11   C     C_R   0.560817 0.474406 0.857795 -0.270017
C12   C     C_R   0.439072 0.525395 0.142206 -0.267106
C13   C     C_R   0.553881 0.479576 0.965894 0.102613
C14   C     C_R   0.445929 0.520123 0.034122 0.101682
H1    H     H_    0.357701 0.559058 0.194149 0.162981
H2    H     H_    0.642264 0.440839 0.805836 0.159384
H3    H     H_    0.266574 0.590143 0.045680 0.182349
H4    H     H_    0.733053 0.409336 0.954367 0.181182
H5    H     H_    0.366616 0.863268 0.516939 0.183986
H6    H     H_    0.633158 0.136613 0.483579 0.187693
C15   C     C_2   0.405007 0.113900 0.511984 -0.331016
C16   C     C_2   0.594854 0.886055 0.488038 -0.326707
C17   C     C_2   0.516347 0.069662 0.498102 -0.113648
C18   C     C_2   0.483432 0.930240 0.502170 -0.116571
H7    H     H_    0.711510 0.953259 0.473343 0.146451
H8    H     H_    0.288354 0.046729 0.526472 0.147402
H9    H     H_    0.839015 0.450831 0.588530 0.122438
H10   H     H_    0.171587 0.585645 0.431232 0.143561
N1    N     N_2   0.131210 0.444490 0.546730 -0.130156
N2    N     N_2   0.868790 0.555510 0.453270 -0.143597
C19   C     C_2   0.085892 0.516177 0.494800 -0.023383
C20   C     C_2   0.921457 0.505411 0.516565 0.002191
N3    N     N_R   0.736477 0.395419 0.156865 0.122480
O9    O     O_R   0.874830 0.419641 0.101905 -0.337735
O10   O     O_R   0.676183 0.307886 0.238474 -0.361918
N4    N     N_R   0.262868 0.603770 0.843246 0.125535
O11   O     O_R   0.124343 0.578944 0.898125 -0.338930
O12   O     O_R   0.322909 0.691512 0.761791 -0.363385
C21   C     C_3   0.971532 0.645665 0.361034 -0.087244
C22   C     C_3   0.051503 0.781007 0.394689 -0.874484
H11   H     H_    0.967824 0.822944 0.435266 0.269472
H12   H     H_    0.118628 0.776505 0.449972 0.234447
H13   H     H_    0.128681 0.847103 0.322700 0.239541
H14   H     H_    0.053521 0.606171 0.312849 0.144670
H15   H     H_    0.906636 0.657784 0.306846 0.219587
C23   C     C_3   0.018060 0.355088 0.638082 -0.142610
C24   C     C_3   0.054863 0.241730 0.671587 -0.700299
H16   H     H_    0.065207 0.178887 0.604909 0.237940
H17   H     H_    0.155097 0.273844 0.702577 0.266409
H18   H     H_    0.959255 0.179720 0.738288 0.199522
H19   H     H_    0.998030 0.411575 0.708045 0.193197
H20   H     H_    0.910477 0.302945 0.617298 0.128360

loop_
_geom_bond_atom_site_label_1
_geom_bond_atom_site_label_2
_geom_bond_distance
_ccdc_geom_bond_type
C22   H12   1.108793 S    
O7    Cu2   1.962504 S    
C15   C17   1.334516 D    
C6    C11   1.399535 A    
C23   H19   1.112042 S    
N3    O10   1.301388 A    
C3    C6    1.458221 S    
C2    C16   1.454230 S    
N1    C23   1.474685 S    
C4    C5    1.458409 S    
O6    C4    1.297471 A    
N3    O9    1.301188 A    
C23   H20   1.109729 S    
H9    C20   1.079525 S    
N2    C20   1.303420 D    
C17   C18   1.451592 S    
C24   H18   1.111141 S    
C9    N4    1.436941 S    
N1    C19   1.309820 D    
N4    O11   1.301174 A    
Cu1   Cu2   2.688525 S    
O5    C3    1.297515 A    
O7    C3    1.294194 A    
N2    C21   1.457423 S    
C24   H16   1.109928 S    
O2    C2    1.294546 A    
O3    Cu2   1.947760 S    
O8    C4    1.294317 A    
C6    C9    1.417123 A    
O1    C1    1.294742 A    
C7    C9    1.396916 A    
C11   H2    1.085330 S    
C22   H11   1.109821 S    
C8    C10   1.396976 A    
C11   C13   1.388415 A    
C5    C10   1.417145 A    
O2    Cu2   1.945866 S    
C12   C14   1.388417 A    
C24   H17   1.102247 S    
C7    C14   1.398069 A    
O1    Cu1   1.945866 S    
C13   C14   1.408918 A    
C21   H14   1.111041 S    
C22   H13   1.110386 S    
N4    O12   1.301391 A    
O5    Cu1   1.961681 S    
C10   N3    1.436950 S    
C8    H4    1.084488 S    
C23   C24   1.524693 S    
H10   C19   1.081530 S    
O4    C2    1.295516 A    
C21   C22   1.530488 S    
C19   C20   1.539451 S    
O4    Cu1   1.947760 S    
C15   H8    1.087546 S    
Cu1   N2    2.019670 S    
O6    Cu2   1.961684 S    
H6    C17   1.087998 S    
O3    C1    1.295413 A    
Cu2   N1    2.019670 S    
C21   H15   1.106224 S    
H5    C18   1.087822 S    
C12   H1    1.085355 S    
C5    C12   1.399562 A    
C16   H7    1.087438 S    
C8    C13   1.398072 A    
C16   C18   1.334605 D    
C1    C15   1.454374 S    
O8    Cu1   1.962505 S    
C7    H3    1.084472 S    
