data_mof_unit_pretest_116.cif
_audit_creation_date              2012-12-11T16:25:36-0500
_audit_creation_method            fapswitch 2.2
_symmetry_space_group_name_H-M    P1
_symmetry_Int_Tables_number       1
_space_group_crystal_system       triclinic
_cell_length_a                    20.527876
_cell_length_b                    7.344164
_cell_length_c                    13.633384
_cell_angle_alpha                 89.78908
_cell_angle_beta                  103.779936
_cell_angle_gamma                 90.979853
_cell_volume                      1995.91992533

loop_
_atom_site_label
_atom_site_type_symbol
_atom_type_description
_atom_site_fract_x
_atom_site_fract_y
_atom_site_fract_z
_atom_type_partial_charge
O1    O     O_R   0.449520 0.506760 0.599710 -0.530548
O2    O     O_R   0.550480 0.006760 0.400290 -0.539512
O3    O     O_R   0.587930 0.180200 0.595790 -0.521504
O4    O     O_R   0.412070 0.680200 0.404210 -0.533540
C1    C     C_R   0.614654 0.344922 0.617065 0.745542
C2    C     C_R   0.386085 0.842623 0.381812 0.751173
O5    O     O_R   0.452350 0.177380 0.611700 -0.548451
O6    O     O_R   0.547650 0.677380 0.388300 -0.538753
O7    O     O_R   0.413930 0.001760 0.416320 -0.529935
O8    O     O_R   0.586070 0.501760 0.583680 -0.539901
C3    C     C_R   0.435968 0.343930 0.636204 0.695205
C4    C     C_R   0.563074 0.848362 0.362015 0.688171
O9    O     O_3   0.487550 0.337460 0.435880 -0.386261
O10   O     O_3   0.512450 0.837460 0.564120 -0.378816
V1    V     V_3+5 0.502310 0.064670 0.511900 1.464041
V2    V     V_3+5 0.497690 0.564670 0.488100 1.482912
C5    C     C_R   0.616270 0.005799 0.127524 0.201706
C6    C     C_R   0.387603 0.329157 0.884811 0.195068
H1    H     H_    0.692305 0.004588 0.996460 0.173181
H2    H     H_    0.312306 0.381494 0.011260 0.179670
C7    C     C_R   0.603235 0.872524 0.284726 -0.190239
C8    C     C_R   0.394150 0.345849 0.710871 -0.163172
C9    C     C_R   0.928145 0.799817 0.305522 0.141324
C10   C     C_R   0.070978 0.320174 0.690902 0.130921
C11   C     C_R   0.897814 0.813961 0.385311 -0.050568
C12   C     C_R   0.098776 0.375160 0.612542 -0.065801
C13   C     C_R   0.828139 0.837198 0.368589 0.076824
C14   C     C_R   0.167264 0.422886 0.631353 0.066602
C15   C     C_R   0.787277 0.853235 0.267364 0.112196
C16   C     C_R   0.210187 0.396101 0.729955 0.094109
C17   C     C_R   0.821787 0.869494 0.186643 -0.051016
C18   C     C_R   0.176841 0.384811 0.812223 -0.050846
C19   C     C_R   0.714643 0.871175 0.242821 0.026137
C20   C     C_R   0.283085 0.378506 0.751904 0.042670
C21   C     C_R   0.683319 0.948466 0.147918 0.050256
C22   C     C_R   0.318431 0.366573 0.855980 0.057534
C23   C     C_R   0.717917 0.961018 0.071733 -0.199933
C24   C     C_R   0.284698 0.382393 0.932729 -0.187523
C25   C     C_R   0.783742 0.907282 0.087239 -0.095975
C26   C     C_R   0.215921 0.389010 0.913313 -0.103327
C27   C     C_R   0.670205 0.812860 0.304187 -0.124720
C28   C     C_R   0.323543 0.358477 0.678966 -0.104618
C29   C     C_R   0.578431 0.981209 0.199269 0.158607
C30   C     C_R   0.424575 0.315168 0.812353 0.143249
C31   C     C_R   0.892946 0.847582 0.208371 -0.145513
C32   C     C_R   0.105601 0.359765 0.789722 -0.139061
C33   C     C_R   0.236125 0.849223 0.037779 0.108904
C34   C     C_R   0.763289 0.406920 0.961420 0.102298
C35   C     C_R   0.294179 0.825602 0.000879 -0.072531
C36   C     C_R   0.706492 0.461326 0.994772 -0.064232
C37   C     C_R   0.355465 0.785578 0.066894 0.180356
C38   C     C_R   0.648111 0.512870 0.924403 0.193450
C39   C     C_R   0.360205 0.779861 0.169707 -0.155165
C40   C     C_R   0.642797 0.484026 0.822153 -0.156960
C41   C     C_R   0.305516 0.822138 0.210760 -0.047870
C42   C     C_R   0.695068 0.407023 0.787011 -0.051721
C43   C     C_R   0.240674 0.845126 0.144558 0.095269
C44   C     C_R   0.759185 0.388285 0.855605 0.091081
C45   C     C_R   0.316062 0.842683 0.316755 -0.101818
C46   C     C_R   0.684494 0.351755 0.684492 -0.102361
C47   C     C_R   0.260635 0.874120 0.359487 0.044166
C48   C     C_R   0.741736 0.312687 0.646581 0.063542
C49   C     C_R   0.196280 0.909634 0.293943 -0.084057
C50   C     C_R   0.806230 0.358580 0.707469 -0.100230
C51   C     C_R   0.184132 0.873596 0.187021 -0.100690
C52   C     C_R   0.816474 0.363391 0.814898 -0.094157
C53   C     C_R   0.267708 0.874789 0.466718 0.213194
C54   C     C_R   0.736865 0.252289 0.545969 0.175547
C55   C     C_R   0.213676 0.920744 0.507089 0.163650
C56   C     C_R   0.790242 0.286631 0.498970 0.176380
C57   C     C_R   0.152324 0.965221 0.443039 0.113529
C58   C     C_R   0.849579 0.367008 0.555365 0.150309
C59   C     C_R   0.146563 0.981412 0.339400 -0.106171
C60   C     C_R   0.856443 0.410999 0.657167 -0.125113
H3    H     H_    0.408376 0.745179 0.217482 0.121411
H4    H     H_    0.597419 0.526331 0.769795 0.131050
O11   O     O_R   0.913760 0.203480 0.916370 -0.522047
O12   O     O_R   0.086240 0.703480 0.083630 -0.519753
O13   O     O_R   0.047590 0.535230 0.888250 -0.531257
O14   O     O_R   0.952410 0.035230 0.111750 -0.527611
C61   C     C_R   0.065537 0.368826 0.865637 0.697559
C62   C     C_R   0.933058 0.866686 0.132453 0.691289
O15   O     O_R   0.912020 0.532880 0.904260 -0.527283
O16   O     O_R   0.087980 0.032880 0.095740 -0.526946
O17   O     O_R   0.949590 0.708460 0.099750 -0.550767
O18   O     O_R   0.050410 0.208460 0.900250 -0.542894
C63   C     C_R   0.886315 0.364959 0.881755 0.740754
C64   C     C_R   0.113448 0.867432 0.120336 0.732786
O19   O     O_3   0.012370 0.375360 0.064120 -0.362210
O20   O     O_3   0.987630 0.875360 0.935880 -0.364853
V3    V     V_3+5 0.997700 0.648160 0.988110 1.544464
V4    V     V_3+5 0.002300 0.148160 0.011890 1.552007
N1    N     N_3   0.514371 0.066391 0.182548 -0.677342
H5    H     H_    0.517046 0.169068 0.236237 0.255348
H6    H     H_    0.478567 0.970034 0.191549 0.236190
N2    N     N_3   0.493098 0.261803 0.843254 -0.676401
H7    H     H_    0.521742 0.359410 0.816930 0.238950
H8    H     H_    0.498236 0.137656 0.808847 0.243166
N3    N     N_3   0.173989 0.886473 0.966673 -0.648764
H9    H     H_    0.162343 0.778059 0.915674 0.236595
H10   H     H_    0.180070 0.004370 0.926431 0.233324
N4    N     N_3   0.824527 0.372330 0.035173 -0.652964
H11   H     H_    0.815777 0.270296 0.084181 0.239486
H12   H     H_    0.838949 0.490875 0.077503 0.238883
C65   C     C_1   0.291688 0.841537 0.894673 0.287274
N5    N     N_1   0.291230 0.853572 0.810087 -0.334502
C66   C     C_1   0.707899 0.460847 0.101214 0.293468
N6    N     N_1   0.708898 0.457375 0.186347 -0.347746
N7    N     N_3   0.414568 0.753861 0.031169 -0.665531
H13   H     H_    0.403025 0.655019 0.975007 0.248400
H14   H     H_    0.426467 0.872112 0.996348 0.233892
N8    N     N_3   0.593363 0.596421 0.954588 -0.666468
H15   H     H_    0.577378 0.512646 0.006440 0.239002
H16   H     H_    0.610982 0.718267 0.990988 0.242828
N9    N     N_3   0.328600 0.820987 0.536017 -0.632644
H17   H     H_    0.346245 0.928837 0.585591 0.257500
H18   H     H_    0.318008 0.710231 0.578273 0.270770
N10   N     N_3   0.677702 0.159586 0.491361 -0.636965
H19   H     H_    0.655154 0.234404 0.427274 0.249257
H20   H     H_    0.690966 0.031537 0.470744 0.240653
N11   N     N_3   0.223010 0.928632 0.614688 -0.636238
H21   H     H_    0.186686 0.849087 0.637562 0.251008
H22   H     H_    0.216793 0.062697 0.634977 0.230803
N12   N     N_3   0.781622 0.268204 0.391051 -0.632221
H23   H     H_    0.739023 0.192121 0.357309 0.253455
H24   H     H_    0.821990 0.198326 0.376177 0.230935
C67   C     C_1   0.098738 0.113910 0.290106 0.370299
N13   N     N_1   0.060687 0.223374 0.253746 -0.279996
C68   C     C_1   0.905617 0.549894 0.699407 0.348016
N14   N     N_1   0.944247 0.663217 0.732739 -0.283008
N15   N     N_3   0.586709 0.092257 0.033386 -0.668784
H25   H     H_    0.545128 0.013695 0.996857 0.258503
H26   H     H_    0.570019 0.219699 0.049066 0.264047
N16   N     N_3   0.420334 0.300772 0.989258 -0.670010
H27   H     H_    0.438780 0.169130 0.996984 0.263263
H28   H     H_    0.461394 0.390421 0.009445 0.261823
C69   C     C_1   0.687395 0.681011 0.382868 0.442675
N17   N     N_1   0.698006 0.579182 0.448754 -0.373478
C70   C     C_1   0.298383 0.320194 0.572585 0.345308
N18   N     N_1   0.282354 0.289129 0.486903 -0.367386
N19   N     N_3   0.995795 0.736814 0.324532 -0.641841
H29   H     H_    0.024725 0.832892 0.297440 0.218504
H30   H     H_    0.995766 0.617110 0.283376 0.268416
N20   N     N_3   0.009962 0.213791 0.669742 -0.637421
H31   H     H_    0.976874 0.266495 0.708769 0.220879
H32   H     H_    0.021966 0.083756 0.699160 0.260804
N21   N     N_3   0.801589 0.860478 0.455845 -0.692261
H33   H     H_    0.811667 0.742390 0.499467 0.257341
H34   H     H_    0.828798 0.963189 0.500907 0.228806
N22   N     N_3   0.189351 0.515293 0.552482 -0.646717
H35   H     H_    0.177942 0.431666 0.488656 0.250555
H36   H     H_    0.157271 0.623455 0.530877 0.223914
C71   C     C_1   0.940373 0.815236 0.486184 0.399762
N23   N     N_1   0.975131 0.818127 0.566357 -0.344664
C72   C     C_1   0.057115 0.379458 0.511003 0.417557
N24   N     N_1   0.024480 0.381680 0.429325 -0.333131
C73   C     C_1   0.808326 0.891119 0.996661 0.287156
N25   N     N_1   0.826885 0.877405 0.923289 -0.312209
C74   C     C_1   0.189373 0.387026 0.002630 0.282691
N26   N     N_1   0.169428 0.384595 0.075196 -0.303217
N27   N     N_3   0.093547 0.981748 0.481405 -0.644148
H37   H     H_    0.080005 0.850206 0.498599 0.259105
H38   H     H_    0.105516 0.051467 0.549584 0.233724
N28   N     N_3   0.904294 0.401642 0.509478 -0.629351
H39   H     H_    0.920342 0.275103 0.490513 0.261161
H40   H     H_    0.886572 0.472741 0.442353 0.258053

loop_
_geom_bond_atom_site_label_1
_geom_bond_atom_site_label_2
_ccdc_geom_bond_type
O15   C63   A    
C49   C51   A    
O11   V4    S    
C14   N22   S    
N1    H5    S    
C9    C31   A    
C41   C45   A    
C5    N15   S    
C26   C74   S    
N21   H33   S    
O1    C3    A    
O2    C4    A    
C2    O7    A    
N8    H16   S    
N27   H37   S    
O17   V3    S    
N28   H40   S    
C33   C35   A    
C12   C14   A    
O5    C3    A    
C73   N25   T    
C5    C21   A    
N28   H39   S    
N21   H34   S    
C10   C12   A    
N7    H14   S    
N20   H32   S    
C13   C15   A    
C38   N8    S    
N9    H17   S    
C15   C19   A    
C33   N3    S    
C46   C48   A    
C55   C57   A    
C53   N9    S    
N10   H19   S    
N8    H15   S    
C48   C50   A    
H1    C23   S    
C54   N10   S    
C7    C29   A    
C44   C52   A    
C8    C30   A    
C31   C62   S    
C42   C44   A    
C20   C28   A    
N9    H18   S    
N2    H8    S    
C36   C38   A    
C66   N6    T    
C27   C69   S    
C61   O18   A    
C34   C36   A    
N1    H6    S    
C24   C26   A    
C25   C73   S    
C12   C72   S    
C39   H3    S    
O4    V2    S    
N27   H38   S    
C38   C40   A    
C39   C41   A    
C23   C25   A    
C40   C42   A    
C45   C47   A    
C56   C58   A    
C16   C20   A    
C11   C71   S    
O13   V3    S    
O14   C62   A    
C52   C63   S    
C57   C59   A    
N16   H28   S    
C49   C59   A    
C35   C37   A    
C59   C67   S    
C4    C7    S    
C42   C46   A    
C53   C55   A    
N19   H30   S    
C50   C52   A    
O14   V4    S    
C5    C29   A    
C30   N2    S    
C6    C30   A    
C33   C43   A    
C32   C61   S    
H2    C24   S    
C47   C53   A    
C74   N26   T    
C55   N11   S    
O6    C4    A    
C34   N4    S    
N2    H7    S    
C47   C49   A    
C58   N28   S    
O1    V2    S    
O19   V4    S    
N4    H12   S    
O2    V1    S    
N11   H21   S    
C40   H4    S    
C58   C60   A    
N3    H10   S    
C41   C43   A    
C36   C66   S    
C7    C27   A    
C60   C68   S    
O4    C2    A    
C67   N13   T    
O3    C1    A    
O3    V1    S    
C51   C64   S    
N12   H24   S    
C68   N14   T    
C65   N5    T    
O12   C64   A    
C57   N27   S    
C1    C46   S    
C21   C23   A    
C28   C70   S    
O10   V1    S    
C18   C32   A    
C2    C45   S    
O16   C64   A    
C43   C51   A    
N20   H31   S    
N15   H26   S    
C35   C65   S    
C70   N18   T    
C34   C44   A    
N16   H27   S    
O12   V3    S    
C11   C13   A    
C62   O17   A    
O15   V3    S    
C69   N17   T    
C3    C8    S    
O13   C61   A    
N3    H9    S    
C48   C54   A    
C29   N1    S    
C19   C27   A    
C14   C16   A    
C37   N7    S    
C10   C32   A    
C1    O8    A    
C15   C17   A    
C13   N21   S    
O18   V4    S    
N7    H13   S    
C22   C24   A    
C16   C18   A    
O20   V3    S    
C8    C28   A    
C10   N20   S    
O5    V1    S    
C19   C21   A    
C20   C22   A    
C17   C25   A    
C6    N16   S    
N22   H36   S    
C18   C26   A    
O7    V1    S    
N4    H11   S    
N10   H20   S    
N11   H22   S    
C56   N12   S    
C9    C11   A    
O11   C63   A    
O6    V2    S    
C17   C31   A    
O9    V2    S    
C72   N24   T    
C54   C56   A    
C50   C60   A    
N22   H35   S    
C9    N19   S    
O8    V2    S    
O16   V4    S    
C37   C39   A    
C71   N23   T    
N19   H29   S    
C6    C22   A    
N15   H25   S    
N12   H23   S    
