data_mof_unit_pretest_1791.cif
_audit_creation_date              2012-12-10T19:30:25-0500
_audit_creation_method            fapswitch 2.2
_symmetry_space_group_name_H-M    P1
_symmetry_Int_Tables_number       1
_space_group_crystal_system       triclinic
_cell_length_a                    17.752031
_cell_length_b                    16.548493
_cell_length_c                    19.343117
_cell_angle_alpha                 90.01359
_cell_angle_beta                  94.500938
_cell_angle_gamma                 90.00175
_cell_volume                      5664.89066052

loop_
_atom_site_label
_atom_site_type_symbol
_atom_type_description
_atom_site_fract_x
_atom_site_fract_y
_atom_site_fract_z
_atom_type_partial_charge
C1    C     C_R   0.355644 0.500065 0.504772 0.854658
C2    C     C_R   0.644356 0.500064 0.495230 0.854670
C3    C     C_R   0.727200 0.498992 0.486683 -0.062378
C4    C     C_R   0.272799 0.498994 0.513319 -0.062371
C5    C     C_R   0.885661 0.484171 0.496021 0.142372
C6    C     C_R   0.114337 0.484171 0.503965 0.142376
C7    C     C_1   0.966160 0.478794 0.498901 -0.016330
C8    C     C_1   0.033837 0.478794 0.501082 -0.016328
C9    C     C_R   0.535207 0.830718 0.554857 -0.295229
C10   C     C_R   0.438845 0.169210 0.470238 -0.296783
C11   C     C_R   0.464789 0.830688 0.445149 -0.295229
C12   C     C_R   0.561149 0.169227 0.529765 -0.296791
C13   C     C_R   0.536617 0.745244 0.554138 0.228637
C14   C     C_R   0.439581 0.254683 0.468858 0.198384
C15   C     C_R   0.463379 0.745215 0.445865 0.228659
C16   C     C_R   0.560417 0.254701 0.531143 0.198419
C17   C     C_R   0.499997 0.874206 0.500003 0.144461
C18   C     C_R   0.499996 0.125713 0.500002 0.145520
C19   C     C_1   0.499996 0.962994 0.500004 0.015208
C20   C     C_1   0.499995 0.036924 0.500003 0.012877
C21   C     C_R   0.505132 0.500007 0.367303 0.928395
C22   C     C_R   0.494874 0.500022 0.632698 0.928431
C23   C     C_R   0.539821 0.573389 0.259773 0.183269
C24   C     C_R   0.501164 0.432700 0.751690 0.253114
C25   C     C_R   0.460225 0.573435 0.740260 0.183305
C26   C     C_R   0.498840 0.432665 0.248291 0.253077
C27   C     C_R   0.535363 0.580676 0.187219 0.229972
C28   C     C_R   0.505561 0.440756 0.824240 0.210359
C29   C     C_R   0.464684 0.580722 0.812818 0.229979
C30   C     C_R   0.494452 0.440716 0.175743 0.210368
C31   C     C_R   0.510233 0.515284 0.145575 -0.189485
C32   C     C_R   0.489798 0.515327 0.854436 -0.189480
C33   C     C_R   0.514702 0.501462 0.291184 -0.266312
C34   C     C_R   0.485319 0.501498 0.708821 -0.266333
C35   C     C_R   0.495099 0.522724 0.930018 0.529257
C36   C     C_R   0.504926 0.522687 0.069996 0.529247
C37   C     C_R   0.852642 0.557138 0.512463 -0.212621
C38   C     C_R   0.158911 0.419883 0.528928 -0.211512
C39   C     C_R   0.147362 0.557137 0.487555 -0.212638
C40   C     C_R   0.841081 0.419880 0.471038 -0.211512
C41   C     C_R   0.774242 0.566557 0.505930 -0.036965
C42   C     C_R   0.237675 0.427040 0.536040 -0.033099
C43   C     C_R   0.225764 0.566557 0.494097 -0.036956
C44   C     C_R   0.762317 0.427034 0.463936 -0.033097
Cu1   Cu    Cu3+1 0.500000 0.580420 0.500000 1.112586
Cu2   Cu    Cu3+1 0.500000 0.419580 0.500000 1.107017
H1    H     H_    0.888542 0.608072 0.528212 0.137405
H2    H     H_    0.131985 0.365050 0.545403 0.137904
H3    H     H_    0.111467 0.608070 0.471824 0.137404
H4    H     H_    0.868001 0.365044 0.454544 0.137906
H5    H     H_    0.563292 0.863584 0.598073 0.144284
H6    H     H_    0.390676 0.136346 0.446396 0.143373
H7    H     H_    0.436702 0.863529 0.401934 0.144287
H8    H     H_    0.609315 0.136376 0.553608 0.143373
N1    N     N_R   0.436426 0.522868 0.033634 -0.168386
N2    N     N_R   0.563599 0.522937 0.966380 -0.168383
N3    N     N_R   0.431579 0.522980 0.964650 -0.156252
N4    N     N_R   0.568446 0.523015 0.035363 -0.156235
N5    N     N_R   0.500000 0.701220 0.500000 -0.166062
N6    N     N_R   0.500000 0.298780 0.500000 -0.179557
O1    O     O_R   0.391260 0.567930 0.500000 -0.510951
O2    O     O_R   0.608740 0.432070 0.500000 -0.570305
O3    O     O_R   0.608740 0.567930 0.500000 -0.510934
O4    O     O_R   0.391260 0.432070 0.500000 -0.570320
O5    O     O_R   0.499990 0.567930 0.400140 -0.558999
O6    O     O_R   0.500010 0.432070 0.599860 -0.500672
O7    O     O_R   0.500010 0.567930 0.599860 -0.558939
O8    O     O_R   0.499990 0.432070 0.400140 -0.500682
Br1   Br    Br    0.590827 0.658751 0.313560 -0.371509
Br2   Br    Br    0.508931 0.324708 0.715038 -0.299247
Br3   Br    Br    0.409247 0.658807 0.686507 -0.371526
Br4   Br    Br    0.491029 0.324684 0.284911 -0.299184
Br5   Br    Br    0.562272 0.680954 0.144250 -0.329646
Br6   Br    Br    0.531180 0.348777 0.883305 -0.298882
Br7   Br    Br    0.437793 0.680998 0.855829 -0.329634
Br8   Br    Br    0.468821 0.348734 0.116645 -0.298857
C45   C     C_2   0.746286 0.649373 0.516621 0.485342
H9    H     H_    0.769366 0.684388 0.560787 0.067682
O9    O     O_2   0.702409 0.681689 0.473386 -0.475458
C46   C     C_2   0.279474 0.359972 0.572534 0.386368
H10   H     H_    0.257884 0.298700 0.567544 0.060541
O10   O     O_2   0.335261 0.372926 0.611983 -0.499668
C47   C     C_2   0.253726 0.649373 0.483445 0.485373
H11   H     H_    0.230644 0.684395 0.439300 0.067696
O11   O     O_2   0.297612 0.681683 0.526692 -0.475479
C48   C     C_2   0.720509 0.359956 0.427431 0.386382
H12   H     H_    0.742093 0.298683 0.432409 0.060539
O12   O     O_2   0.664721 0.372902 0.387986 -0.499665
C49   C     C_2   0.578334 0.708591 0.615412 0.429486
H13   H     H_    0.572599 0.734606 0.666268 0.081494
O13   O     O_2   0.623490 0.654041 0.610359 -0.543814
C50   C     C_2   0.371419 0.291214 0.432869 0.458257
H14   H     H_    0.316360 0.265909 0.440906 0.004357
O14   O     O_2   0.375262 0.344970 0.390354 -0.486523
C51   C     C_2   0.421658 0.708528 0.384592 0.429453
H15   H     H_    0.427422 0.734490 0.333731 0.081508
O15   O     O_2   0.376473 0.654008 0.389651 -0.543852
C52   C     C_2   0.628584 0.291249 0.567136 0.458195
H16   H     H_    0.683639 0.265913 0.559119 0.004382
O16   O     O_2   0.624745 0.345051 0.609634 -0.486535

loop_
_geom_bond_atom_site_label_1
_geom_bond_atom_site_label_2
_ccdc_geom_bond_type
C42   C46   S    
C5    C37   A    
C26   Br4   S    
C23   Br1   S    
C51   H15   S    
C9    H5    S    
C28   Br6   S    
C24   Br2   S    
C7    C8    T    
C45   H9    S    
Cu2   O2    S    
Cu2   O6    S    
C29   C32   A    
C36   N4    A    
C15   C51   S    
C30   C31   A    
C48   O12   D    
C21   C33   S    
C43   C47   S    
C16   N6    A    
C9    C13   A    
C22   O6    A    
C21   O5    A    
C3    C41   A    
C12   C16   A    
C23   C33   A    
Cu1   O7    S    
C6    C38   A    
C25   Br3   S    
C23   C27   A    
C37   H1    S    
C38   H2    S    
C11   H7    S    
C25   C34   A    
C13   C49   S    
C10   H6    S    
C11   C15   A    
C44   C48   S    
C45   O9    D    
C25   C29   A    
C22   C34   S    
C3    C44   A    
C27   C31   A    
C39   H3    S    
C28   C32   A    
C46   O10   D    
C10   C14   A    
C5    C7    S    
C48   H12   S    
C6    C8    S    
Cu1   Cu2   S    
Cu1   O3    S    
C24   C34   A    
Cu2   O4    S    
C32   C35   S    
Cu2   O8    S    
C30   Br8   S    
C26   C33   A    
C47   H11   S    
C50   O14   D    
C14   C50   S    
C29   Br7   S    
C9    C17   A    
C47   O11   D    
C26   C30   A    
C52   O16   D    
N1    N3    A    
C21   O8    A    
Cu1   O5    S    
C49   O13   D    
C1    O4    A    
C2    O3    A    
C11   C17   A    
Cu2   N6    S    
C35   N2    A    
C6    C39   A    
C15   N5    A    
C24   C28   A    
C46   H10   S    
C1    O1    A    
C39   C43   A    
C51   O15   D    
C38   C42   A    
C13   N5    A    
C4    C43   A    
C14   N6    A    
C35   N3    A    
C1    C4    S    
C19   C20   T    
C2    C3    S    
C36   N1    A    
C41   C45   S    
C16   C52   S    
C4    C42   A    
C10   C18   A    
C40   H4    S    
Cu1   O1    S    
C50   H14   S    
C17   C19   S    
N2    N4    A    
C18   C20   S    
C37   C41   A    
C22   O7    A    
C40   C44   A    
Cu1   N5    S    
C52   H16   S    
C5    C40   A    
C12   C18   A    
C31   C36   S    
C49   H13   S    
C27   Br5   S    
C12   H8    S    
C2    O2    A    
