data_mof_unit_pretest_593.cif
_audit_creation_date              2012-12-10T18:09:35-0500
_audit_creation_method            fapswitch 2.2
_symmetry_space_group_name_H-M    P1
_symmetry_Int_Tables_number       1
_space_group_crystal_system       triclinic
_cell_length_a                    15.173582
_cell_length_b                    15.253423
_cell_length_c                    9.430478
_cell_angle_alpha                 90.000092
_cell_angle_beta                  89.999369
_cell_angle_gamma                 90.06301
_cell_volume                      2182.67399249

loop_
_atom_site_label
_atom_site_type_symbol
_atom_type_description
_atom_site_fract_x
_atom_site_fract_y
_atom_site_fract_z
_atom_type_partial_charge
C1    C     C_R   0.119836 0.379458 0.499808 0.940935
C2    C     C_R   0.118672 0.621557 0.500222 0.942969
C3    C     C_R   0.619852 0.879472 0.500190 0.940889
C4    C     C_R   0.618662 0.121566 0.499778 0.942988
C5    C     C_3   0.069894 0.559373 0.083732 -0.522215
C6    C     C_3   0.069612 0.559662 0.916286 -0.452572
C7    C     C_3   0.569634 0.059638 0.083712 -0.452496
C8    C     C_3   0.569908 0.059359 0.916265 -0.522281
C9    C     C_R   0.877805 0.382311 0.500080 0.937416
C10   C     C_R   0.878690 0.618573 0.499988 0.915698
C11   C     C_R   0.377808 0.882308 0.499921 0.937395
C12   C     C_R   0.378681 0.118565 0.500014 0.915788
C13   C     C_3   0.851366 0.223186 0.513968 -0.480682
C14   C     C_3   0.755091 0.317625 0.359103 -0.364790
C15   C     C_3   0.774863 0.701865 0.652969 -0.433489
C16   C     C_3   0.849162 0.773988 0.445463 -0.515695
C17   C     C_3   0.255272 0.817445 0.641082 -0.364503
C18   C     C_3   0.351366 0.723198 0.485620 -0.481006
C19   C     C_3   0.349189 0.274029 0.554203 -0.515477
C20   C     C_3   0.274685 0.201686 0.347095 -0.433488
C21   C     C_3   0.186622 0.742939 0.646196 0.825212
C22   C     C_3   0.280101 0.650722 0.476875 0.910167
C23   C     C_3   0.278783 0.347411 0.553455 0.914260
C24   C     C_3   0.201586 0.271311 0.345532 0.846851
C25   C     C_3   0.780104 0.150710 0.522816 0.910137
C26   C     C_3   0.686487 0.243075 0.353924 0.825186
C27   C     C_3   0.701711 0.771433 0.654511 0.846970
C28   C     C_3   0.778778 0.847392 0.446321 0.914223
C29   C     C_3   0.742117 0.328367 0.625823 1.208451
C30   C     C_3   0.730348 0.659730 0.403180 1.164034
C31   C     C_3   0.241979 0.828506 0.374425 1.208284
C32   C     C_3   0.230429 0.159814 0.597104 1.164214
C33   C     C_3   0.807798 0.314490 0.500281 -0.386179
C34   C     C_3   0.809300 0.686859 0.499913 -0.314376
C35   C     C_3   0.307806 0.814482 0.499725 -0.386098
C36   C     C_3   0.309281 0.186844 0.500093 -0.314570
C37   C     C_3   0.186591 0.691926 0.501072 -0.352674
C38   C     C_3   0.188435 0.309634 0.499256 -0.356299
C39   C     C_3   0.686578 0.191938 0.498929 -0.352710
C40   C     C_3   0.688460 0.809655 0.500740 -0.356175
C41   C     C_3   0.167677 0.759533 0.381076 -0.621126
C42   C     C_3   0.160088 0.233046 0.598348 -0.575792
C43   C     C_3   0.667772 0.259445 0.619120 -0.621197
C44   C     C_3   0.660051 0.733005 0.401818 -0.575872
C45   C     C_3   0.915600 0.530400 0.083634 0.584726
C46   C     C_3   0.915482 0.530110 0.916473 0.574814
C47   C     C_3   0.019621 0.411374 0.083382 0.568131
C48   C     C_3   0.020336 0.411461 0.916319 0.553896
C49   C     C_3   0.415495 0.030145 0.083530 0.574812
C50   C     C_3   0.415607 0.030417 0.916369 0.584673
C51   C     C_3   0.520297 0.911453 0.083680 0.553820
C52   C     C_3   0.519611 0.911372 0.916617 0.568197
Cu1   Cu    Cu3+1 0.000100 0.500000 0.642410 1.098353
Cu2   Cu    Cu3+1 0.000100 0.500000 0.357590 1.084950
Cu3   Cu    Cu3+1 0.500100 0.000000 0.642410 1.084967
Cu4   Cu    Cu3+1 0.500100 0.000000 0.357590 1.098328
H1    H     H_    0.895202 0.221622 0.608578 0.248147
H2    H     H_    0.723048 0.382890 0.348331 0.272321
H3    H     H_    0.750901 0.638770 0.698228 0.266284
H4    H     H_    0.876454 0.764212 0.337064 0.226257
H5    H     H_    0.223290 0.882718 0.652227 0.272470
H6    H     H_    0.395053 0.721740 0.390821 0.248397
H7    H     H_    0.376654 0.264359 0.662504 0.226261
H8    H     H_    0.250628 0.138551 0.302133 0.266393
H9    H     H_    0.894629 0.211389 0.420505 0.267411
H10   H     H_    0.800310 0.310750 0.266846 0.311611
H11   H     H_    0.830096 0.723926 0.722230 0.241202
H12   H     H_    0.905822 0.793342 0.513664 0.255769
H13   H     H_    0.300607 0.810394 0.733160 0.311518
H14   H     H_    0.394784 0.711311 0.578872 0.267138
H15   H     H_    0.405730 0.293341 0.485731 0.255997
H16   H     H_    0.329848 0.223617 0.277593 0.241184
H17   H     H_    0.103128 0.792129 0.399017 0.240161
H18   H     H_    0.161893 0.726480 0.276406 0.252547
H19   H     H_    0.150634 0.257180 0.708574 0.252461
H20   H     H_    0.095045 0.206209 0.565558 0.244184
H21   H     H_    0.662028 0.226308 0.723725 0.252605
H22   H     H_    0.603234 0.292095 0.601346 0.240173
H23   H     H_    0.594995 0.706233 0.434685 0.244169
H24   H     H_    0.650599 0.757066 0.291550 0.252384
H25   H     H_    0.903003 0.598804 0.118815 0.092104
H26   H     H_    0.902266 0.598283 0.880670 0.036219
H27   H     H_    0.085457 0.389090 0.119471 0.137729
H28   H     H_    0.086753 0.389825 0.881084 0.082295
H29   H     H_    0.402314 0.098328 0.119318 0.036258
H30   H     H_    0.403024 0.098821 0.881178 0.092341
H31   H     H_    0.586695 0.889779 0.118941 0.082389
H32   H     H_    0.585457 0.889093 0.880553 0.137667
H33   H     H_    0.059098 0.627450 0.122252 0.231896
H34   H     H_    0.057919 0.627747 0.878730 0.273053
H35   H     H_    0.136098 0.539160 0.122240 0.287643
H36   H     H_    0.135890 0.540217 0.876900 0.298853
H37   H     H_    0.557969 0.127726 0.121278 0.273103
H38   H     H_    0.559120 0.127440 0.877759 0.231871
H39   H     H_    0.635906 0.040167 0.123089 0.298811
H40   H     H_    0.636108 0.039140 0.877739 0.287606
N1    N     N_3   0.001260 0.500000 0.143650 -0.318386
N2    N     N_3   0.001260 0.500000 0.856350 -0.318187
N3    N     N_3   0.501260 0.000000 0.143650 -0.318180
N4    N     N_3   0.501260 0.000000 0.856350 -0.318370
O1    O     O_R   0.091250 0.408820 0.620260 -0.585673
O2    O     O_R   0.091250 0.408820 0.379740 -0.528798
O3    O     O_R   0.091250 0.591180 0.620260 -0.534270
O4    O     O_R   0.091250 0.591180 0.379740 -0.604519
O5    O     O_R   0.591250 0.908820 0.620260 -0.528835
O6    O     O_R   0.591250 0.908820 0.379740 -0.585676
O7    O     O_R   0.591250 0.091180 0.620260 -0.604563
O8    O     O_R   0.591250 0.091180 0.379740 -0.534216
O9    O     O_R   0.908940 0.408800 0.620260 -0.452900
O10   O     O_R   0.908940 0.408800 0.379740 -0.500383
O11   O     O_R   0.908940 0.591200 0.620260 -0.593177
O12   O     O_R   0.908940 0.591200 0.379740 -0.561322
O13   O     O_R   0.408940 0.908800 0.620260 -0.500400
O14   O     O_R   0.408940 0.908800 0.379740 -0.452976
O15   O     O_R   0.408940 0.091200 0.620260 -0.561234
O16   O     O_R   0.408940 0.091200 0.379740 -0.593152
F1    F     F_    0.209133 0.686897 0.756270 -0.563627
F2    F     F_    0.296961 0.588451 0.580451 -0.513206
F3    F     F_    0.306621 0.413844 0.463815 -0.511175
F4    F     F_    0.226453 0.337267 0.252253 -0.577732
F5    F     F_    0.796853 0.088486 0.419121 -0.513257
F6    F     F_    0.708971 0.187142 0.243693 -0.563632
F7    F     F_    0.726567 0.837462 0.747664 -0.577701
F8    F     F_    0.806710 0.913835 0.535866 -0.511194
Cl1   Cl    Cl    0.080047 0.787801 0.688124 -0.534590
Cl2   Cl    Cl    0.288442 0.595693 0.308677 -0.382647
Cl3   Cl    Cl    0.271828 0.394212 0.728338 -0.452966
Cl4   Cl    Cl    0.102027 0.222770 0.276758 -0.457163
Cl5   Cl    Cl    0.788596 0.095601 0.690924 -0.382303
Cl6   Cl    Cl    0.579861 0.287896 0.312254 -0.534746
Cl7   Cl    Cl    0.602219 0.722850 0.723472 -0.457089
Cl8   Cl    Cl    0.771712 0.894157 0.271424 -0.453317
F9    F     F_    0.785342 0.319678 0.754666 -0.502983
F10   F     F_    0.706027 0.411791 0.619605 -0.561983
F11   F     F_    0.692996 0.582564 0.452781 -0.571168
F12   F     F_    0.758574 0.645453 0.265238 -0.608619
F13   F     F_    0.205851 0.911904 0.381071 -0.562173
F14   F     F_    0.285064 0.820028 0.245418 -0.503001
F15   F     F_    0.258784 0.145766 0.735025 -0.608782
F16   F     F_    0.193084 0.082556 0.547898 -0.571083
F17   F     F_    0.846645 0.480041 0.135223 -0.501125
F18   F     F_    0.846776 0.479257 0.865668 -0.469870
F19   F     F_    0.959211 0.350515 0.132757 -0.510946
F20   F     F_    0.961294 0.349855 0.865229 -0.495635
F21   F     F_    0.346766 0.979333 0.134360 -0.469944
F22   F     F_    0.346642 0.980064 0.864797 -0.501100
F23   F     F_    0.461209 0.849878 0.134738 -0.495780
F24   F     F_    0.459212 0.850510 0.867207 -0.511093

loop_
_geom_bond_atom_site_label_1
_geom_bond_atom_site_label_2
_ccdc_geom_bond_type
C18   H14   S    
C29   F9    S    
Cu3   Cu4   S    
C17   H13   S    
C47   F19   S    
C27   Cl7   S    
C19   H15   S    
C8    H40   S    
C25   Cl5   S    
C14   C33   S    
C7    C8    S    
C46   F18   S    
C13   H9    S    
C45   C46   S    
C3    O5    A    
C43   H22   S    
C4    O8    A    
C48   F20   S    
C42   H19   S    
C7    N3    S    
Cu3   O5    S    
C32   C36   S    
Cu2   O4    S    
C32   F16   S    
C19   C36   S    
C23   F3    S    
C5    C6    S    
C26   C39   S    
C22   Cl2   S    
C13   H1    S    
C28   C40   S    
C29   C33   S    
Cu2   O10   S    
C16   H4    S    
C11   O14   A    
Cu4   O8    S    
C21   F1    S    
C17   C35   S    
C16   C34   S    
C41   H18   S    
C46   H26   S    
C2    O4    A    
C20   C24   S    
Cu1   O1    S    
Cu3   N4    S    
C24   C38   S    
Cu2   N1    S    
C10   O12   A    
C16   H12   S    
C47   H27   S    
C12   C36   S    
C18   C35   S    
C15   C34   S    
C16   C28   S    
C26   Cl6   S    
C12   O15   A    
C17   H5    S    
C50   F22   S    
C29   F10   S    
C46   N2    S    
C52   F24   S    
C29   C43   S    
C9    C33   S    
C30   C44   S    
C7    H37   S    
C3    O6    A    
C9    O9    A    
C14   H2    S    
C4    O7    A    
C24   F4    S    
C30   C34   S    
C49   F21   S    
C51   C52   S    
C49   H29   S    
C52   H32   S    
C8    H38   S    
C32   F15   S    
C19   H7    S    
C27   F7    S    
C18   H6    S    
Cu4   O16   S    
C39   C43   S    
Cu3   O13   S    
C6    H34   S    
C22   C37   S    
C52   N4    S    
C17   C21   S    
C48   H28   S    
Cu3   O7    S    
C28   Cl8   S    
C20   H8    S    
C19   C23   S    
C13   C33   S    
C49   N3    S    
C51   N3    S    
C15   C27   S    
C47   C48   S    
C4    C39   S    
C44   H24   S    
C27   C40   S    
C15   H11   S    
C14   H10   S    
Cu2   O12   S    
C10   O11   A    
C10   C34   S    
C14   C26   S    
C31   F14   S    
Cu4   O6    S    
C51   F23   S    
C5    H35   S    
C1    C38   S    
C45   F17   S    
C5    N1    S    
C3    C40   S    
C49   C50   S    
C1    O1    A    
C30   F12   S    
C51   H31   S    
C31   C35   S    
C31   F13   S    
C21   Cl1   S    
C6    N2    S    
C7    H39   S    
C23   Cl3   S    
Cu1   O9    S    
C9    O10   A    
C22   F2    S    
C32   C42   S    
C31   C41   S    
C18   C22   S    
C15   H3    S    
Cu2   O2    S    
C44   H23   S    
C45   H25   S    
C13   C25   S    
C28   F8    S    
Cu1   Cu2   S    
Cu1   N2    S    
C43   H21   S    
C23   C38   S    
C48   N2    S    
C42   H20   S    
C47   N1    S    
C11   C35   S    
C8    N4    S    
C45   N1    S    
C25   C39   S    
C2    C37   S    
Cu1   O11   S    
Cu3   O15   S    
C2    O3    A    
Cu1   O3    S    
C6    H36   S    
C37   C41   S    
C11   O13   A    
C50   N4    S    
C50   H30   S    
C41   H17   S    
C20   C36   S    
C38   C42   S    
C40   C44   S    
C21   C37   S    
C30   F11   S    
C24   Cl4   S    
Cu4   O14   S    
C20   H16   S    
C26   F6    S    
Cu4   N3    S    
C25   F5    S    
C1    O2    A    
C5    H33   S    
C12   O16   A    
