data_mof_unit_pretest_106.cif
_audit_creation_date              2012-12-11T15:37:25-0500
_audit_creation_method            fapswitch 2.2
_symmetry_space_group_name_H-M    P1
_symmetry_Int_Tables_number       1
_space_group_crystal_system       triclinic
_cell_length_a                    17.444424
_cell_length_b                    24.300677
_cell_length_c                    14.963461
_cell_angle_alpha                 89.999014
_cell_angle_beta                  125.938369
_cell_angle_gamma                 90.000756
_cell_volume                      5135.74830728

loop_
_atom_site_label
_atom_site_type_symbol
_atom_type_description
_atom_site_fract_x
_atom_site_fract_y
_atom_site_fract_z
_atom_type_partial_charge
C1    C     C_R   0.847109 0.651519 0.907274 -0.100762
C2    C     C_3   0.588945 0.501973 0.560522 0.164881
C3    C     C_3   0.057354 0.005433 0.507198 -0.096423
C4    C     C_3   0.911059 0.001974 0.439466 0.164997
C5    C     C_3   0.077837 0.001778 0.621574 0.158092
C6    C     C_R   0.659367 0.313547 0.901722 -0.140554
C7    C     C_R   0.214400 0.766030 0.102118 -0.146320
C8    C     C_R   0.339088 0.312287 0.097105 -0.145121
C9    C     C_R   0.784594 0.766348 0.898714 -0.143901
C10   C     C_R   0.160906 0.812291 0.902890 -0.145117
C11   C     C_R   0.715389 0.266354 0.101281 -0.143900
C12   C     C_R   0.840626 0.813543 0.098273 -0.140553
C13   C     C_R   0.185504 0.368401 0.090861 -0.074008
C14   C     C_R   0.285584 0.266024 0.897877 -0.146414
C15   C     C_R   0.111396 0.767666 0.902205 -0.145812
C16   C     C_R   0.762075 0.312380 0.101437 -0.142813
C17   C     C_R   0.886997 0.767261 0.098567 -0.146233
C18   C     C_R   0.235547 0.310179 0.897325 -0.144125
C19   C     C_R   0.612994 0.267265 0.901428 -0.146245
C20   C     C_R   0.264440 0.810185 0.102671 -0.144024
C21   C     C_R   0.388597 0.267663 0.097790 -0.145823
C22   C     C_R   0.737911 0.812374 0.898559 -0.142795
C23   C     C_R   0.144764 0.740773 0.001622 0.128846
C24   C     C_R   0.150801 0.652082 0.092512 -0.111010
C25   C     C_R   0.741132 0.332164 0.001445 0.129715
C26   C     C_R   0.852726 0.740283 0.998903 0.127413
C27   C     C_R   0.255577 0.329124 0.997280 0.131578
C28   C     C_R   0.647261 0.240288 0.001093 0.127401
C29   C     C_R   0.244415 0.829128 0.002717 0.131522
C30   C     C_R   0.355225 0.240769 0.998374 0.128906
C31   C     C_R   0.758860 0.832160 0.998551 0.129735
C32   C     C_R   0.066392 0.497235 0.614355 -0.239800
C33   C     C_R   0.933515 0.496902 0.385561 -0.240020
C34   C     C_R   0.097784 0.497042 0.548737 0.066540
C35   C     C_R   0.810118 0.373605 0.907708 -0.066870
C36   C     C_R   0.902119 0.496701 0.451190 0.067694
C37   C     C_R   0.566521 0.997123 0.614466 -0.240135
C38   C     C_R   0.433637 0.997012 0.385664 -0.239840
C39   C     C_R   0.597918 0.996904 0.548839 0.067730
C40   C     C_R   0.402246 0.996837 0.451285 0.067000
C41   C     C_R   0.031041 0.497550 0.435025 0.181643
C42   C     C_R   0.968870 0.497542 0.564896 0.186713
C43   C     C_R   0.531160 0.997524 0.435124 0.186690
C44   C     C_R   0.468989 0.997566 0.564996 0.181562
C45   C     C_R   0.902804 0.376834 0.092614 -0.069027
C46   C     C_R   0.349199 0.152082 0.907486 -0.111056
C47   C     C_R   0.057779 0.651365 0.908983 -0.057651
C48   C     C_R   0.095547 0.375322 0.906659 -0.063312
C49   C     C_R   0.941333 0.651076 0.091099 -0.062098
C50   C     C_R   0.404450 0.875323 0.093341 -0.063344
C51   C     C_R   0.558655 0.151080 0.908900 -0.062117
C52   C     C_R   0.597192 0.876832 0.907385 -0.068916
C53   C     C_R   0.442212 0.151362 0.091016 -0.057623
C54   C     C_R   0.047881 0.545094 0.304763 0.461759
C55   C     C_R   0.950574 0.453591 0.695830 0.410044
C56   C     C_R   0.952185 0.545079 0.695241 0.463618
C57   C     C_R   0.689880 0.873604 0.092291 -0.066876
C58   C     C_R   0.049319 0.453585 0.304088 0.408096
C59   C     C_R   0.547828 0.045076 0.304768 0.463605
C60   C     C_R   0.450693 0.953587 0.695915 0.408018
C61   C     C_R   0.452133 0.045096 0.695245 0.461714
C62   C     C_R   0.549439 0.953588 0.304173 0.410096
C63   C     C_R   0.734020 0.454901 0.709117 -0.086681
C64   C     C_R   0.268711 0.546335 0.254677 -0.049638
C65   C     C_R   0.270361 0.455048 0.263601 -0.085064
C66   C     C_R   0.733552 0.546642 0.714598 -0.047317
C67   C     C_R   0.229639 0.955047 0.736393 -0.085274
C68   C     C_R   0.652889 0.151520 0.092724 -0.100718
C69   C     C_R   0.766449 0.046642 0.285394 -0.047301
C70   C     C_R   0.765983 0.954901 0.290878 -0.086688
C71   C     C_R   0.231288 0.046334 0.745321 -0.049675
C72   C     C_R   0.877477 0.682769 0.999257 -0.014478
C73   C     C_R   0.183037 0.358163 0.998237 -0.025927
C74   C     C_R   0.119979 0.683382 0.000776 -0.015307
C75   C     C_R   0.813237 0.362258 0.000579 -0.026489
C76   C     C_R   0.380014 0.183379 0.999221 -0.015301
C77   C     C_R   0.686759 0.862255 0.999419 -0.026539
C78   C     C_R   0.622513 0.182773 0.000740 -0.014489
C79   C     C_R   0.314494 0.868402 0.909138 -0.073925
C80   C     C_R   0.316960 0.858165 0.001762 -0.025929
C81   C     C_R   0.060846 0.498825 0.364951 -0.215942
C82   C     C_R   0.939123 0.498831 0.635019 -0.221089
C83   C     C_R   0.560899 0.998824 0.364993 -0.221081
C84   C     C_R   0.439175 0.998830 0.635061 -0.215861
C85   C     C_R   0.679713 0.501077 0.662812 -0.017056
C86   C     C_R   0.325193 0.500772 0.287544 -0.035968
C87   C     C_R   0.174807 0.000771 0.712450 -0.035828
C88   C     C_R   0.820291 0.001077 0.337178 -0.017102
C89   C     C_3   0.514417 0.458466 0.530546 -0.161173
C90   C     C_3   0.422164 0.501780 0.378417 0.158072
C91   C     C_3   0.496492 0.545438 0.408003 -0.155461
C92   C     C_3   0.492835 0.454766 0.414915 -0.164806
C93   C     C_3   0.518357 0.548978 0.523938 -0.162679
C94   C     C_3   0.007178 0.954754 0.585053 -0.164809
C95   C     C_3   0.981635 0.048989 0.476074 -0.162586
C96   C     C_3   0.985598 0.958479 0.469424 -0.161330
C97   C     C_3   0.003498 0.045424 0.592007 -0.155474
C98   C     C_3   0.442650 0.505410 0.492795 -0.096268
C99   C     C_3   0.569586 0.498379 0.446918 -0.083209
C100  C     C_3   0.930415 0.998355 0.553069 -0.083206
H1    H     H_    0.806730 0.664984 0.822528 0.127181
H2    H     H_    0.012628 0.666361 0.826305 0.187446
H3    H     H_    0.070382 0.372561 0.821964 0.153662
H4    H     H_    0.987252 0.666243 0.173638 0.185099
H5    H     H_    0.429613 0.872564 0.178035 0.153661
H6    H     H_    0.512717 0.166252 0.826366 0.185099
H7    H     H_    0.571561 0.873138 0.822651 0.154811
H8    H     H_    0.487346 0.166354 0.173697 0.187444
H9    H     H_    0.716662 0.413572 0.676121 0.145690
H10   H     H_    0.290426 0.588931 0.272501 0.120082
H11   H     H_    0.295105 0.414518 0.298132 0.125444
H12   H     H_    0.237778 0.354424 0.173582 0.111486
H13   H     H_    0.715671 0.589181 0.689679 0.136343
H14   H     H_    0.204898 0.914517 0.701860 0.125266
H15   H     H_    0.784332 0.089181 0.310313 0.136335
H16   H     H_    0.783343 0.913572 0.323875 0.145700
H17   H     H_    0.209573 0.088930 0.727497 0.120074
H18   H     H_    0.387937 0.508280 0.508513 0.160909
H19   H     H_    0.625390 0.495527 0.433036 0.162694
H20   H     H_    0.874610 0.995484 0.566948 0.162693
H21   H     H_    0.112068 0.008322 0.491485 0.160862
H22   H     H_    0.524382 0.423299 0.583810 0.128229
H23   H     H_    0.189818 0.665797 0.176952 0.131674
H24   H     H_    0.485826 0.580519 0.354274 0.139293
H25   H     H_    0.479343 0.416676 0.366734 0.125130
H26   H     H_    0.531154 0.587145 0.571638 0.135853
H27   H     H_    0.020678 0.916653 0.633215 0.125113
H28   H     H_    0.968829 0.087166 0.428392 0.135824
H29   H     H_    0.975643 0.923323 0.416143 0.128151
H30   H     H_    0.014154 0.080494 0.645753 0.139294
H31   H     H_    0.636541 0.330703 0.823053 0.115561
H32   H     H_    0.237872 0.748816 0.180898 0.122671
H33   H     H_    0.361203 0.329521 0.175502 0.112273
H34   H     H_    0.753228 0.365338 0.822944 0.101161
H35   H     H_    0.760325 0.748870 0.819840 0.122937
H36   H     H_    0.138794 0.829524 0.824493 0.112256
H37   H     H_    0.739654 0.248877 0.180155 0.122934
H38   H     H_    0.863456 0.830700 0.176942 0.115531
H39   H     H_    0.262107 0.248810 0.819097 0.122617
H40   H     H_    0.053451 0.751644 0.823252 0.137669
H41   H     H_    0.820535 0.328242 0.180235 0.142659
H42   H     H_    0.943546 0.750439 0.177463 0.139388
H43   H     H_    0.175634 0.324987 0.818425 0.143335
H44   H     H_    0.556449 0.250442 0.822532 0.139418
H45   H     H_    0.310189 0.165797 0.823045 0.131657
H46   H     H_    0.324352 0.824993 0.181571 0.143379
H47   H     H_    0.446545 0.251642 0.176743 0.137664
H48   H     H_    0.679450 0.828236 0.819760 0.142641
H49   H     H_    0.117482 0.497443 0.703379 0.119076
H50   H     H_    0.882429 0.496854 0.296537 0.118387
H51   H     H_    0.172965 0.497024 0.585785 0.154307
H52   H     H_    0.826939 0.496439 0.414167 0.149426
H53   H     H_    0.617608 0.997241 0.703493 0.118490
H54   H     H_    0.382543 0.997054 0.296638 0.119017
H55   H     H_    0.673100 0.996796 0.585866 0.149429
H56   H     H_    0.746771 0.865336 0.177055 0.101166
H57   H     H_    0.327063 0.996666 0.414238 0.154362
H58   H     H_    0.176103 0.672661 0.351298 0.368052
H59   H     H_    0.752894 0.369016 0.489294 0.374213
H60   H     H_    0.825956 0.673932 0.647059 0.368817
H61   H     H_    0.243201 0.368241 0.514767 0.375550
H62   H     H_    0.674026 0.173934 0.352874 0.368814
H63   H     H_    0.256190 0.868265 0.486108 0.375550
H64   H     H_    0.323865 0.172653 0.648614 0.368047
H65   H     H_    0.747077 0.869002 0.510750 0.374207
H66   H     H_    0.693273 0.164984 0.177470 0.127182
H67   H     H_    0.262220 0.854425 0.826418 0.111424
H68   H     H_    0.928431 0.373142 0.177346 0.154843
N1    N     N_R   0.892620 0.603790 0.941800 -0.046611
N2    N     N_R   0.047790 0.602400 0.942090 -0.050312
N3    N     N_R   0.047790 0.397600 0.942090 -0.037530
N4    N     N_R   0.952210 0.602400 0.057910 -0.050323
N5    N     N_R   0.452210 0.897600 0.057910 -0.037526
N6    N     N_R   0.547790 0.102400 0.942090 -0.050343
N7    N     N_R   0.547790 0.897600 0.942090 -0.036575
N8    N     N_R   0.452210 0.102400 0.057910 -0.050288
N9    N     N_R   0.026300 0.529110 0.206760 -0.138368
N10   N     N_R   0.973700 0.470890 0.793240 -0.146206
N11   N     N_R   0.973700 0.529110 0.793240 -0.137990
N12   N     N_R   0.107380 0.396210 0.058200 -0.040158
N13   N     N_R   0.026300 0.470890 0.206760 -0.147057
N14   N     N_R   0.526300 0.029110 0.206760 -0.137965
N15   N     N_R   0.473700 0.970890 0.793240 -0.147019
N16   N     N_R   0.473700 0.029110 0.793240 -0.138379
N17   N     N_R   0.526300 0.970890 0.206760 -0.146229
N18   N     N_R   0.818530 0.472270 0.792960 -0.050928
N19   N     N_R   0.181470 0.527730 0.207040 -0.035935
N20   N     N_R   0.181470 0.472270 0.207040 -0.041175
N21   N     N_R   0.818530 0.527730 0.792960 -0.045751
N22   N     N_R   0.318530 0.972270 0.792960 -0.041151
N23   N     N_R   0.107380 0.603790 0.058200 -0.046764
N24   N     N_R   0.681470 0.027730 0.207040 -0.045743
N25   N     N_R   0.681470 0.972270 0.207040 -0.050929
N26   N     N_R   0.318530 0.027730 0.792960 -0.035931
N27   N     N_R   0.892620 0.396210 0.941800 -0.038627
N28   N     N_R   0.392620 0.103790 0.941800 -0.046769
N29   N     N_R   0.607380 0.896210 0.058200 -0.038626
N30   N     N_R   0.607380 0.103790 0.058200 -0.046603
N31   N     N_R   0.392620 0.896210 0.941800 -0.040131
N32   N     N_R   0.952210 0.397600 0.057910 -0.036603
Ni1   Ni    Ni4+2 0.934150 0.565840 0.869060 0.267578
Ni2   Ni    Ni4+2 0.065850 0.434160 0.130940 0.314583
Ni3   Ni    Ni4+2 0.065850 0.565840 0.130940 0.273267
Ni4   Ni    Ni4+2 0.934150 0.434160 0.869060 0.307907
Ni5   Ni    Ni4+2 0.434150 0.065840 0.869060 0.273243
Ni6   Ni    Ni4+2 0.565850 0.934160 0.130940 0.307920
Ni7   Ni    Ni4+2 0.565850 0.065840 0.130940 0.267606
Ni8   Ni    Ni4+2 0.434150 0.934160 0.869060 0.314476
O1    O     O_2   0.028072 0.645975 0.358389 -0.294794
O2    O     O_2   0.051219 0.358445 0.393947 -0.289455
O3    O     O_2   0.119311 0.358359 0.289300 -0.310505
O4    O     O_3   0.215038 0.404743 0.482758 -0.544068
O5    O     O_2   0.524899 0.145372 0.357543 -0.291634
O6    O     O_2   0.675098 0.098975 0.490509 -0.275653
O7    O     O_3   0.649224 0.138297 0.313913 -0.611674
O8    O     O_2   0.448714 0.858441 0.605997 -0.288701
O9    O     O_2   0.380696 0.858374 0.710724 -0.311211
O10   O     O_3   0.284935 0.904766 0.517262 -0.544218
O11   O     O_2   0.471989 0.145981 0.641679 -0.294807
O12   O     O_2   0.176996 0.598269 0.490714 -0.269187
O13   O     O_2   0.323094 0.098272 0.509270 -0.269004
O14   O     O_3   0.348358 0.136674 0.686177 -0.602104
O15   O     O_2   0.553205 0.858939 0.396706 -0.284396
O16   O     O_2   0.618618 0.858019 0.289211 -0.317478
O17   O     O_3   0.716387 0.905322 0.481828 -0.558351
O18   O     O_3   0.151612 0.636678 0.313751 -0.602102
O19   O     O_2   0.946782 0.358951 0.603257 -0.284439
O20   O     O_2   0.881402 0.358016 0.710789 -0.317468
O21   O     O_3   0.783607 0.405333 0.518184 -0.558459
O22   O     O_2   0.975153 0.645378 0.642513 -0.291703
O23   O     O_2   0.824976 0.598977 0.509480 -0.275465
O24   O     O_3   0.850754 0.638296 0.686029 -0.611670
S1    S     S_3+6 0.101537 0.608068 0.370064 -0.045085
S2    S     S_3+6 0.891559 0.391187 0.633512 -0.057127
S3    S     S_3+6 0.900395 0.608457 0.630264 -0.050475
S4    S     S_3+6 0.107778 0.391014 0.366004 -0.050082
S5    S     S_3+6 0.599636 0.108453 0.369737 -0.050521
S6    S     S_3+6 0.392205 0.891023 0.633990 -0.050142
S7    S     S_3+6 0.398498 0.108071 0.629936 -0.045025
S8    S     S_3+6 0.608445 0.891181 0.366481 -0.057056

loop_
_geom_bond_atom_site_label_1
_geom_bond_atom_site_label_2
_ccdc_geom_bond_type
C62   C83   A    
C19   H44   S    
C66   H13   S    
N10   Ni4   S    
N5    N31   A    
C43   C83   S    
C14   C18   A    
C36   C42   A    
N13   Ni2   S    
C42   C82   S    
C70   C88   A    
C92   H25   S    
C97   C100  S    
C49   H4    S    
C46   C76   A    
C5    C94   S    
C67   N22   A    
C65   C86   A    
C94   H27   S    
C45   N32   A    
C6    C19   A    
C35   C75   A    
O18   S1    S    
O13   S7    D    
C58   N13   A    
C17   C26   A    
H59   O21   S    
N8    Ni7   S    
C18   H43   S    
C59   S5    S    
C67   H14   S    
C10   H36   S    
C97   H30   S    
N27   N32   A    
C13   H12   S    
C58   S4    S    
O15   S8    D    
C51   H6    S    
C7    C23   A    
C9    C22   A    
C46   H45   S    
C89   H22   S    
C48   N3    A    
C66   N21   A    
N19   Ni3   S    
O14   S7    S    
N28   Ni5   S    
C33   C36   A    
C62   S8    S    
O3    S4    D    
C35   H34   S    
C2    C85   S    
C68   N30   A    
N14   Ni7   S    
O11   S7    D    
N3    Ni4   S    
O19   S2    D    
C93   H26   S    
N7    N29   A    
C2    C89   S    
C4    C96   S    
C90   C92   S    
C95   H28   S    
C65   H11   S    
C32   H49   S    
N11   Ni1   S    
C52   H7    S    
N2    Ni1   S    
C49   C72   A    
C12   C17   A    
N6    Ni5   S    
N9    Ni3   S    
C56   S3    S    
C98   H18   S    
N5    Ni6   S    
O7    S5    S    
C45   C75   A    
O2    S4    D    
C28   C78   S    
H58   O18   S    
O20   S2    D    
C35   N27   A    
H62   O7    S    
C60   N15   A    
C15   C23   A    
N30   Ni7   S    
C65   N20   A    
C47   H2    S    
C63   C85   A    
C55   C82   A    
N15   Ni8   S    
N29   Ni6   S    
C34   C41   A    
N23   Ni3   S    
N7    Ni8   S    
C66   C85   A    
N17   Ni6   S    
C69   N24   A    
C64   C86   A    
O4    S4    S    
C9    C26   A    
C31   C77   S    
C20   C29   A    
C68   C78   A    
H61   O4    S    
N6    N30   A    
C1    C72   A    
C79   N31   A    
C22   C31   A    
C71   H17   S    
C61   S7    S    
N10   N11   A    
C40   H57   S    
O6    S5    D    
C53   H8    S    
C86   C90   S    
C58   C81   A    
C36   H52   S    
C71   N26   A    
C39   C43   A    
N27   Ni4   S    
N21   Ni1   S    
C14   C30   A    
C48   H3    S    
C99   H19   S    
N2    N23   A    
C24   H23   S    
N16   Ni5   S    
C39   H55   S    
C17   H42   S    
C25   C75   S    
N14   N17   A    
C32   C34   A    
C63   H9    S    
N4    Ni3   S    
N15   N16   A    
H63   O10   S    
C57   H56   S    
C59   C83   A    
C57   C77   A    
C91   C93   S    
C4    C95   S    
C30   C76   S    
C11   C16   A    
O12   S1    D    
C64   H10   S    
C50   H5    S    
C94   C100  S    
C63   N18   A    
C41   C81   S    
C38   C43   A    
H65   O17   S    
C8    C21   A    
C5    C87   S    
N18   Ni4   S    
O22   S3    D    
C26   C72   S    
N8    N28   A    
C89   C92   S    
C94   C96   S    
C19   C28   A    
O16   S8    D    
C52   N7    A    
C7    H32   S    
C3    C96   S    
C69   C88   A    
C62   N17   A    
C71   C87   A    
C9    H35   S    
N22   Ni8   S    
C22   H48   S    
C2    C99   S    
O21   S2    S    
C51   N6    A    
C91   H24   S    
C4    C100  S    
C12   C31   A    
N24   Ni7   S    
C20   H46   S    
N3    N12   A    
C53   C76   A    
C60   S6    S    
O10   S6    S    
C23   C74   S    
C52   C77   A    
C1    H1    S    
C47   N2    A    
C15   H40   S    
C16   C25   A    
O17   S8    S    
N26   Ni5   S    
C69   H15   S    
C61   N16   A    
C32   C42   A    
N25   Ni6   S    
C57   N29   A    
C10   C15   A    
C13   C73   A    
C67   C87   A    
C48   C73   A    
C2    C93   S    
C59   N14   A    
C18   C27   A    
C47   C74   A    
C5    C97   S    
C6    H31   S    
C3    C5    S    
C61   C84   A    
C50   C80   A    
C49   N4    A    
O23   S3    D    
C34   H51   S    
C95   C97   S    
C56   C82   A    
C4    C88   S    
C13   N12   A    
C21   C30   A    
O5    S5    D    
N12   Ni2   S    
C54   N9    A    
C44   C84   S    
C89   C98   S    
C33   H50   S    
O8    S6    D    
N24   N25   A    
C37   H53   S    
C16   H41   S    
C8    H33   S    
C51   C78   A    
C33   C41   A    
N19   N20   A    
C37   C39   A    
C21   H47   S    
C38   C40   A    
C60   C84   A    
C10   C29   A    
C24   C74   A    
C90   C91   S    
C29   C80   S    
C11   C28   A    
N18   N21   A    
C70   N25   A    
N9    N13   A    
C93   C98   S    
C1    N1    A    
N31   Ni8   S    
C55   N10   A    
C24   N23   A    
C12   H38   S    
O24   S3    S    
C11   H37   S    
C100  H20   S    
C45   H68   S    
O1    S1    D    
C64   N19   A    
N22   N26   A    
N1    Ni1   S    
C79   C80   A    
C6    C25   A    
C37   C44   A    
H64   O14   S    
C40   C44   A    
C14   H39   S    
C53   N8    A    
N32   Ni2   S    
C7    C20   A    
H60   O24   S    
C70   H16   S    
C46   N28   A    
C8    C27   A    
C38   H54   S    
N20   Ni2   S    
C3    C95   S    
N1    N4    A    
C55   S2    S    
C54   S1    S    
C79   H67   S    
C91   C99   S    
C27   C73   S    
O9    S6    D    
C90   C98   S    
C54   C81   A    
C3    H21   S    
C92   C99   S    
C50   N5    A    
C96   H29   S    
C56   N11   A    
C68   H66   S    
