data_mof_unit_pretest_479.cif
_audit_creation_date              2012-12-11T15:23:41-0500
_audit_creation_method            fapswitch 2.2
_symmetry_space_group_name_H-M    P1
_symmetry_Int_Tables_number       1
_space_group_crystal_system       triclinic
_cell_length_a                    6.937939
_cell_length_b                    17.538693
_cell_length_c                    19.374285
_cell_angle_alpha                 109.617144
_cell_angle_beta                  90.207699
_cell_angle_gamma                 90.494593
_cell_volume                      2220.53634708

loop_
_atom_site_label
_atom_site_type_symbol
_atom_type_description
_atom_site_fract_x
_atom_site_fract_y
_atom_site_fract_z
_atom_type_partial_charge
O1    O     O_R   0.505810 0.439670 0.562310 -0.527054
O2    O     O_R   0.169070 0.404920 0.411210 -0.551610
O3    O     O_R   0.005550 0.560330 0.437690 -0.543540
C1    C     C_R   0.338546 0.381336 0.383398 0.706718
O4    O     O_R   0.175650 0.430000 0.560110 -0.525678
O5    O     O_R   0.012170 0.585580 0.587650 -0.523610
C2    C     C_R   0.344609 0.415445 0.582000 0.733811
O6    O     O_R   0.499180 0.414420 0.412350 -0.539889
O7    O     O_3   0.341430 0.551020 0.508860 -0.365845
V1    V     V_3+5 0.063930 0.490540 0.498360 1.504156
O8    O     O_R   0.682850 0.595080 0.588790 -0.531262
C3    C     C_R   0.852533 0.617664 0.617035 0.777176
O9    O     O_R   0.676280 0.570000 0.439890 -0.540088
C4    C     C_R   0.845442 0.587402 0.420304 0.688386
V2    V     V_3+5 0.564760 0.509460 0.501640 1.510301
O10   O     O_3   0.837130 0.448980 0.491140 -0.370748
C5    C     C_R   0.761931 0.879266 0.182627 0.297453
C6    C     C_R   0.912377 0.864352 0.130557 -0.212160
C7    C     C_R   0.052906 0.804964 0.128486 0.256855
C8    C     C_R   0.046819 0.764194 0.180087 0.056189
C9    C     C_R   0.890640 0.776098 0.229127 -0.040142
C10   C     C_R   0.745282 0.832101 0.229256 0.007219
C11   C     C_R   0.191871 0.709187 0.181905 -0.109207
C12   C     C_R   0.182138 0.666348 0.230905 -0.195135
C13   C     C_R   0.025904 0.676341 0.278606 0.094716
C14   C     C_R   0.878809 0.730955 0.277699 0.030131
C15   C     C_R   0.720194 0.740578 0.325313 0.065343
C16   C     C_R   0.573525 0.794257 0.322837 -0.133247
C17   C     C_R   0.584974 0.838729 0.275319 -0.180009
C18   C     C_R   0.013760 0.631545 0.326309 -0.230282
C19   C     C_R   0.856749 0.640177 0.374024 -0.171764
C20   C     C_R   0.711351 0.697360 0.375062 0.288912
H1    H     H_    0.314362 0.699091 0.145546 0.180746
H2    H     H_    0.296666 0.624755 0.231039 0.133125
H3    H     H_    0.125836 0.588431 0.325211 0.148047
H4    H     H_    0.447709 0.801849 0.357356 0.179526
H5    H     H_    0.464582 0.877166 0.274415 0.144514
C21   C     C_3   0.755172 0.807626 0.750741 -0.221433
C22   C     C_3   0.917315 0.776138 0.692344 -0.319509
H6    H     H_    0.945430 0.797326 0.645352 0.154608
H7    H     H_    0.647349 0.854329 0.751668 0.172050
C23   C     C_3   0.867556 0.687654 0.687130 -0.149571
C24   C     C_3   0.709744 0.719128 0.744910 0.337002
C25   C     C_3   0.854356 0.724681 0.806271 0.159528
C26   C     C_3   0.013017 0.693666 0.749158 0.277442
C27   C     C_3   0.061920 0.781073 0.754871 0.357092
C28   C     C_3   0.903583 0.812575 0.812713 -0.140782
C29   C     C_3   0.498016 0.241014 0.301588 0.238893
C30   C     C_3   0.342340 0.178987 0.260103 -0.219874
H8    H     H_    0.310371 0.120934 0.269136 0.139428
C31   C     C_3   0.414574 0.188407 0.187370 -0.127794
C32   C     C_3   0.567733 0.249834 0.229873 0.318097
C33   C     C_3   0.429375 0.321503 0.240301 -0.304702
C34   C     C_3   0.274241 0.259097 0.198840 0.231805
C35   C     C_3   0.198659 0.250287 0.270765 -0.106826
C36   C     C_3   0.356813 0.311368 0.312764 -0.113810
H9    H     H_    0.463366 0.379216 0.230947 0.129242
H10   H     H_    0.047006 0.250846 0.288521 0.172506
C37   C     C_R   0.264094 0.119465 0.816230 0.291136
C38   C     C_R   0.415871 0.133927 0.868053 -0.190591
C39   C     C_R   0.555304 0.194890 0.872222 0.242439
C40   C     C_R   0.553262 0.235773 0.820299 0.024724
C41   C     C_R   0.398294 0.221825 0.769083 -0.064433
C42   C     C_R   0.259277 0.160506 0.764140 -0.148228
C43   C     C_R   0.697745 0.293817 0.820336 0.368942
C44   C     C_R   0.673571 0.343233 0.777900 -0.161439
C45   C     C_R   0.517640 0.332435 0.729314 0.022155
C46   C     C_R   0.382042 0.269850 0.722896 -0.067320
C47   C     C_R   0.229293 0.256178 0.671233 -0.092078
C48   C     C_R   0.091233 0.194709 0.667246 0.408330
C49   C     C_R   0.116597 0.143094 0.707868 0.304663
C50   C     C_R   0.496471 0.383935 0.687607 0.299787
C51   C     C_R   0.355139 0.366042 0.631176 -0.246476
C52   C     C_R   0.227385 0.299406 0.620997 0.308613
H11   H     H_    0.783812 0.388514 0.781220 0.192568
O11   O     O_R   0.271890 0.085690 0.087580 -0.531234
O12   O     O_R   0.595690 0.070020 0.939870 -0.547971
O13   O     O_R   0.758900 0.914390 0.912370 -0.546179
C53   C     C_R   0.426516 0.085251 0.918257 0.738823
O14   O     O_R   0.602020 0.095100 0.088770 -0.536284
O15   O     O_R   0.765280 0.939660 0.062330 -0.505016
C54   C     C_R   0.432633 0.118569 0.116651 0.713181
O16   O     O_R   0.265520 0.060430 0.937620 -0.508823
O17   O     O_3   0.429560 0.949050 0.991100 -0.363867
V3    V     V_3+5 0.707160 0.009450 0.001650 1.550242
O18   O     O_R   0.094540 0.929890 0.060190 -0.545779
C55   C     C_R   0.925268 0.914107 0.081268 0.758080
O19   O     O_R   0.088200 0.904800 0.911290 -0.527747
C56   C     C_R   0.918519 0.882159 0.883095 0.785257
V4    V     V_3+5 0.206300 0.990390 0.998440 1.572599
O20   O     O_3   0.934030 0.050940 0.008900 -0.368178
O21   O     O_3   0.635614 0.941386 0.187612 -0.631470
H12   H     H_    0.604603 0.968997 0.239876 0.277855
O22   O     O_3   0.526141 0.684878 0.740099 -0.616137
H13   H     H_    0.472926 0.708014 0.790128 0.330125
O23   O     O_3   0.820600 0.698243 0.865718 -0.646055
H14   H     H_    0.791070 0.639590 0.843908 0.318501
O24   O     O_3   0.143718 0.632841 0.747390 -0.619701
H15   H     H_    0.174828 0.640628 0.799292 0.307792
O25   O     O_3   0.246953 0.814831 0.761018 -0.632141
H16   H     H_    0.300057 0.795292 0.710753 0.310498
N1    N     N_3   0.623521 0.230561 0.358101 -0.647467
H17   H     H_    0.700731 0.177365 0.334199 0.237535
H18   H     H_    0.724167 0.278060 0.372250 0.243930
O26   O     O_3   0.760204 0.249174 0.209315 -0.646465
H19   H     H_    0.757010 0.256488 0.160779 0.301133
N2    N     N_3   0.151533 0.269011 0.141412 -0.624730
H20   H     H_    0.086256 0.325510 0.162766 0.236208
H21   H     H_    0.241466 0.271890 0.099179 0.208423
O27   O     O_3   0.195602 0.784424 0.076079 -0.627100
H22   H     H_    0.141018 0.786908 0.029583 0.303451
O28   O     O_3   0.116844 0.067777 0.820191 -0.629591
H23   H     H_    0.993637 0.095486 0.818814 0.315321
O29   O     O_3   0.683428 0.220672 0.930472 -0.626332
H24   H     H_    0.619735 0.216827 0.974891 0.283024
O30   O     O_3   0.867148 0.303283 0.859750 -0.617506
H25   H     H_    0.915675 0.248407 0.853469 0.317890
O31   O     O_3   0.616274 0.451153 0.703303 -0.639563
H26   H     H_    0.544002 0.495653 0.694753 0.315155
O32   O     O_3   0.109405 0.271949 0.559748 -0.618144
H27   H     H_    0.174605 0.281505 0.517949 0.293107
O33   O     O_3   0.928785 0.182353 0.623539 -0.582866
H28   H     H_    0.871884 0.236210 0.631111 0.323047
O34   O     O_3   0.999437 0.075233 0.689693 -0.613077
H29   H     H_    0.080471 0.029281 0.690550 0.323916
O35   O     O_3   0.562294 0.713738 0.424818 -0.644732
H30   H     H_    0.613145 0.711169 0.471810 0.290827

loop_
_geom_bond_atom_site_label_1
_geom_bond_atom_site_label_2
_ccdc_geom_bond_type
C35   C36   S    
C38   C53   S    
O35   H30   S    
C10   C17   A    
C28   C56   S    
C51   C52   A    
C7    C8    A    
C4    C19   S    
C1    O6    A    
O29   H24   S    
V3    O20   S    
C2    C51   S    
C33   C34   S    
O32   H27   S    
C37   C42   A    
C40   C41   A    
C18   H3    S    
C16   C17   A    
C6    C7    A    
C26   O24   S    
O5    C3    A    
C21   C22   S    
C7    O27   S    
V2    O10   S    
C24   O22   S    
O30   H25   S    
C45   C50   A    
C42   C49   A    
C20   O35   S    
O31   H26   S    
O21   H12   S    
C3    C23   S    
N1    H17   S    
C27   C28   S    
O8    V2    S    
C46   C47   A    
C30   C31   S    
C11   C12   A    
C48   C49   A    
O1    V2    S    
O7    V1    S    
C25   C28   S    
C44   C45   A    
O12   V3    S    
C37   C38   A    
O9    C4    A    
C1    C36   S    
N2    H21   S    
O22   H13   S    
C5    O21   S    
O17   V4    S    
O28   H23   S    
C9    C14   A    
C5    C6    A    
C22   C23   S    
O12   C53   A    
O13   C56   A    
C31   C32   S    
C49   O34   S    
C12   C13   A    
C21   H7    S    
O14   C54   A    
O18   V4    S    
O11   C54   A    
C22   H6    S    
O4    C2    A    
C33   H9    S    
O18   C55   A    
C11   H1    S    
C13   C14   A    
C26   C27   S    
C12   H2    S    
C45   C46   A    
C38   C39   A    
C23   C26   S    
O2    C1    A    
C24   C25   S    
O14   V3    S    
C25   O23   S    
C48   O33   S    
C19   C20   A    
C8    C11   A    
C29   C32   S    
N2    H20   S    
C29   N1    S    
O23   H14   S    
C8    C9    A    
C37   O28   S    
C14   C15   A    
C47   C52   A    
O27   H22   S    
O17   V3    S    
N1    H18   S    
C31   C54   S    
C21   C28   S    
O15   C55   A    
O3    C4    A    
C22   C27   S    
C34   N2    S    
O13   V3    S    
C29   C30   S    
O19   V4    S    
C32   O26   S    
C30   H8    S    
O6    V2    S    
O9    V2    S    
C43   O30   S    
C23   C24   S    
C17   H5    S    
O2    V1    S    
C39   O29   S    
C32   C33   S    
C33   C36   S    
C13   C18   A    
C29   C36   S    
O16   V4    S    
C27   O25   S    
C34   C35   S    
C40   C43   A    
C15   C20   A    
O1    C2    A    
C25   C26   S    
C5    C10   A    
C50   C51   A    
O5    V1    S    
O8    C3    A    
C52   O32   S    
O26   H19   S    
C41   C46   A    
C6    C55   S    
C31   C34   S    
O7    V2    S    
C21   C24   S    
O3    V1    S    
C30   C35   S    
C53   O16   A    
V4    O20   S    
C18   C19   A    
C44   H11   S    
O25   H16   S    
C43   C44   A    
C39   C40   A    
C47   C48   A    
C41   C42   A    
O4    V1    S    
O19   C56   A    
C16   H4    S    
O24   H15   S    
C35   H10   S    
C50   O31   S    
C15   C16   A    
V1    O10   S    
O33   H28   S    
C9    C10   A    
O15   V3    S    
O11   V4    S    
O34   H29   S    
