data_mof_unit_pretest_990.cif
_audit_creation_date              2012-12-10T17:57:23-0500
_audit_creation_method            fapswitch 2.2
_symmetry_space_group_name_H-M    P1
_symmetry_Int_Tables_number       1
_space_group_crystal_system       triclinic
_cell_length_a                    9.52583
_cell_length_b                    10.842002
_cell_length_c                    13.429714
_cell_angle_alpha                 90.242508
_cell_angle_beta                  72.551858
_cell_angle_gamma                 90.067899
_cell_volume                      1323.17846698

loop_
_atom_site_label
_atom_site_type_symbol
_atom_type_description
_atom_site_fract_x
_atom_site_fract_y
_atom_site_fract_z
_atom_type_partial_charge
C1    C     C_R   0.499960 0.737712 0.500295 0.897847
C2    C     C_R   0.449540 0.470095 0.972190 0.028207
C3    C     C_R   0.462237 0.527963 0.875068 -0.031407
C4    C     C_R   0.549989 0.505938 0.027174 0.050916
C5    C     C_R   0.675014 0.578736 0.976945 -0.133672
C6    C     C_R   0.676664 0.642244 0.886156 -0.256707
C7    C     C_R   0.563764 0.625402 0.840619 0.473436
C8    C     C_R   0.522710 0.481777 0.133575 -0.218635
C9    C     C_R   0.759744 0.565134 0.130214 0.611941
C10   C     C_R   0.373018 0.487058 0.814271 -0.077982
C11   C     C_R   0.612294 0.935495 0.525332 -0.205440
C12   C     C_R   0.420901 0.501191 0.700237 0.879593
C13   C     C_R   0.612446 0.063097 0.525721 0.555036
C14   C     C_R   0.499659 0.127752 0.500530 -0.293493
C15   C     C_R   0.386733 0.062488 0.475686 0.577133
C16   C     C_R   0.386966 0.934928 0.476228 -0.239772
C17   C     C_R   0.499774 0.871183 0.500645 -0.218393
C18   C     C_R   0.901560 0.583173 0.558847 0.713990
C19   C     C_R   0.049811 0.582506 0.559387 -0.113237
C20   C     C_R   0.099515 0.417749 0.440028 0.019650
C21   C     C_R   0.950605 0.417554 0.440280 -0.040948
C22   C     C_R   0.499855 0.261960 0.500145 0.860933
C23   C     C_R   0.578787 0.501881 0.299803 0.855026
C24   C     C_R   0.786513 0.598183 0.025750 0.351102
C25   C     C_R   0.624219 0.513117 0.185782 -0.289392
C26   C     C_R   0.254400 0.408369 0.857816 -0.234677
C27   C     C_R   0.237910 0.354059 0.953755 -0.184529
C28   C     C_R   0.340682 0.376143 0.008004 0.437800
Cu1   Cu    Cu3+1 0.359340 0.499980 0.500000 0.991066
Cu2   Cu    Cu3+1 0.640660 0.500020 0.500000 1.077241
H1    H     H_    0.299655 0.886184 0.456290 0.202330
H2    H     H_    0.086059 0.648695 0.606970 0.157834
H3    H     H_    0.175734 0.352044 0.391762 0.193857
H4    H     H_    0.914706 0.351601 0.392352 0.175160
H5    H     H_    0.758688 0.712464 0.854760 0.174940
H6    H     H_    0.416480 0.448852 0.179710 0.240983
H7    H     H_    0.182715 0.378708 0.813091 0.178739
H8    H     H_    0.151767 0.286063 0.981484 0.150428
H9    H     H_    0.699537 0.887202 0.545377 0.231735
N1    N     N_R   0.147940 0.499970 0.499970 -0.207248
N2    N     N_R   0.852060 0.500060 0.499990 -0.215014
O1    O     O_R   0.381250 0.680340 0.500010 -0.601735
O2    O     O_R   0.618820 0.680370 0.500010 -0.523270
O3    O     O_R   0.323240 0.499950 0.650980 -0.604710
O4    O     O_R   0.560810 0.499980 0.650980 -0.520814
O5    O     O_R   0.381180 0.319630 0.499990 -0.536525
O6    O     O_R   0.618750 0.319660 0.499990 -0.545268
O7    O     O_R   0.439190 0.500020 0.349020 -0.596605
O8    O     O_R   0.676760 0.500050 0.349020 -0.538823
F1    F     F_    0.862470 0.592049 0.178652 -0.616718
F2    F     F_    0.721826 0.122401 0.552231 -0.628911
F3    F     F_    0.277277 0.121103 0.449157 -0.639536
F4    F     F_    0.808989 0.668546 0.616605 -0.677178
O9    O     O_3   0.919951 0.652742 0.975803 -0.666932
H10   H     H_    0.943782 0.636815 0.899889 0.321904
O10   O     O_3   0.343293 0.299430 0.089374 -0.744626
H11   H     H_    0.261064 0.239463 0.102783 0.335402
O11   O     O_3   0.546009 0.706641 0.766173 -0.700142
H12   H     H_    0.614561 0.777073 0.760104 0.358110

loop_
_geom_bond_atom_site_label_1
_geom_bond_atom_site_label_2
_ccdc_geom_bond_type
C2    C4    A    
Cu2   N2    S    
C6    C7    A    
C23   O7    A    
Cu1   O1    S    
C1    O1    A    
C7    O11   S    
C1    C17   S    
C14   C15   A    
Cu1   O5    S    
C4    C8    A    
C10   C26   A    
C15   F3    S    
C22   O6    A    
C28   O10   S    
Cu2   O4    S    
C9    C25   A    
C26   H7    S    
C3    C10   A    
C13   C14   A    
C20   C21   A    
C16   H1    S    
C11   H9    S    
C8    C25   A    
C11   C13   A    
C14   C22   S    
C26   C27   A    
Cu1   Cu2   S    
C5    C24   A    
C10   C12   S    
C21   N2    A    
C20   H3    S    
Cu1   N1    S    
C22   O5    A    
Cu2   O8    S    
C2    C3    A    
C3    C7    A    
C23   C25   S    
Cu1   O3    S    
C5    C6    A    
C20   N1    A    
Cu2   O2    S    
C23   O8    A    
C19   N1    A    
C19   H2    S    
C27   H8    S    
C24   O9    S    
C15   C16   A    
Cu2   O6    S    
C6    H5    S    
C12   O3    A    
C18   C19   A    
C8    H6    S    
C18   N2    A    
C27   C28   A    
O10   H11   S    
O9    H10   S    
C4    C5    A    
C2    C28   A    
C21   H4    S    
Cu1   O7    S    
C18   F4    S    
C12   O4    A    
O11   H12   S    
C13   F2    S    
C1    O2    A    
C9    C24   A    
C11   C17   A    
C9    F1    S    
C16   C17   A    
