data_mof_unit_pretest_460.cif
_audit_creation_date              2012-12-10T17:17:28-0500
_audit_creation_method            fapswitch 2.2
_symmetry_space_group_name_H-M    P1
_symmetry_Int_Tables_number       1
_space_group_crystal_system       triclinic
_cell_length_a                    10.222367
_cell_length_b                    10.653661
_cell_length_c                    12.242458
_cell_angle_alpha                 91.041937
_cell_angle_beta                  109.494466
_cell_angle_gamma                 95.522418
_cell_volume                      1249.20879214

loop_
_atom_site_label
_atom_site_type_symbol
_atom_type_description
_atom_site_fract_x
_atom_site_fract_y
_atom_site_fract_z
_atom_type_partial_charge
C1    C     C_R   0.048979 0.733356 0.488758 0.885067
C2    C     C_R   0.419397 0.499385 0.999232 0.041306
C3    C     C_R   0.320603 0.457979 0.890670 0.042427
C4    C     C_R   0.551173 0.451050 0.030433 0.063761
C5    C     C_R   0.570888 0.341911 0.969664 0.058296
C6    C     C_R   0.456357 0.286489 0.874279 -0.043491
C7    C     C_R   0.335712 0.346675 0.834574 -0.212147
C8    C     C_R   0.666124 0.513470 0.117158 -0.219369
C9    C     C_R   0.808675 0.350529 0.107350 -0.232348
C10   C     C_R   0.207983 0.528758 0.839778 -0.154772
C11   C     C_2   0.065249 0.865606 0.464273 -0.184274
C12   C     C_R   0.134363 0.513132 0.714538 0.862065
C13   C     C_2   0.949320 0.926032 0.430362 -0.250083
C14   C     C_2   0.906648 0.130971 0.484694 -0.406133
C15   C     C_2   0.953935 0.060599 0.416272 0.028505
C16   C     C_2   0.431949 0.508446 0.515432 -0.103690
C17   C     C_2   0.568544 0.481382 0.501432 -0.104885
C18   C     C_R   0.945107 0.266382 0.500486 0.921484
C19   C     C_R   0.865529 0.487259 0.285558 0.865279
C20   C     C_R   0.704663 0.295123 0.007986 -0.003797
C21   C     C_R   0.786154 0.456178 0.164166 -0.079539
C22   C     C_R   0.179245 0.625290 0.906265 -0.028991
C23   C     C_R   0.261268 0.648737 0.021781 -0.207937
C24   C     C_R   0.380517 0.587809 0.069422 -0.005267
N1    N     N_2   0.313640 0.446500 0.454900 -0.187998
N2    N     N_2   0.686360 0.553430 0.545150 -0.134677
O1    O     O_R   0.936910 0.692950 0.509080 -0.608625
O2    O     O_R   0.138320 0.658600 0.480130 -0.599107
O3    O     O_R   0.002900 0.525670 0.675280 -0.597640
O4    O     O_R   0.204310 0.491320 0.646330 -0.603550
O5    O     O_R   0.861680 0.341400 0.519870 -0.605161
O6    O     O_R   0.063090 0.307050 0.490920 -0.594866
O7    O     O_R   0.795690 0.508680 0.353670 -0.598799
O8    O     O_R   0.997100 0.474330 0.324720 -0.605756
Zn1   Zn    Zn3+2 0.865520 0.522940 0.519330 0.970975
Zn2   Zn    Zn3+2 0.134480 0.477060 0.480670 0.961343
H1    H     H_    0.905305 0.308552 0.143005 0.174588
H2    H     H_    0.847844 0.877766 0.423236 0.190062
H3    H     H_    0.850336 0.086620 0.537642 0.168811
C25   C     C_1   0.203138 0.926840 0.478126 0.218516
N3    N     N_1   0.313288 0.975554 0.489081 -0.178889
H4    H     H_    0.567766 0.397101 0.449979 0.159495
H5    H     H_    0.431477 0.581375 0.578218 0.174053
C26   C     C_1   0.685204 0.668238 0.600813 0.327362
N4    N     N_1   0.683935 0.763831 0.646705 -0.213256
H6    H     H_    0.316698 0.377431 0.396009 0.178524
C27   C     C_1   0.455759 0.169328 0.812587 0.181068
N5    N     N_1   0.453654 0.075456 0.762598 -0.170378
C28   C     C_1   0.741086 0.190117 0.951716 0.171192
N6    N     N_1   0.771891 0.106291 0.907488 -0.169272
H7    H     H_    0.664040 0.605774 0.153580 0.152757
C29   C     C_1   0.069788 0.705304 0.858205 0.198958
N7    N     N_1   0.982791 0.770151 0.820250 -0.175245
C30   C     C_1   0.449993 0.612257 0.192578 0.137935
N8    N     N_1   0.505176 0.634161 0.291036 -0.193001
H8    H     H_    0.234256 0.718196 0.074446 0.157105
H9    H     H_    0.251066 0.303977 0.759645 0.161757
C31   C     C_1   0.017028 0.112473 0.334294 0.249771
N9    N     N_1   0.068446 0.152785 0.269426 -0.229521

loop_
_geom_bond_atom_site_label_1
_geom_bond_atom_site_label_2
_ccdc_geom_bond_type
C1    O2    A    
C2    C4    A    
C23   C24   A    
C6    C7    A    
C12   O3    A    
O1    Zn1   S    
C14   C18   S    
C9    C20   A    
C3    C7    A    
C27   N5    T    
C1    C11   S    
O4    Zn2   S    
C4    C8    A    
C1    O1    A    
C9    H1    S    
C2    C3    A    
C31   N9    T    
N2    C26   S    
C23   H8    S    
C3    C10   A    
C10   C22   A    
C11   C13   D    
C8    H7    S    
C9    C21   A    
C13   H2    S    
C20   C28   S    
C10   C12   S    
C17   N2    D    
O6    Zn2   S    
C25   N3    T    
C19   C21   S    
C8    C21   A    
O8    Zn2   S    
C13   C15   S    
C2    C24   A    
C5    C6    A    
O7    Zn1   S    
C15   C31   S    
O5    Zn1   S    
C16   H5    S    
C18   O6    A    
C6    C27   S    
N1    Zn2   S    
C24   C30   S    
C11   C25   S    
N2    Zn1   S    
C29   N7    T    
O2    Zn2   S    
C22   C29   S    
C28   N6    T    
C19   O7    A    
C16   N1    D    
C5    C20   A    
O3    Zn1   S    
C17   H4    S    
C16   C17   S    
C18   O5    A    
C12   O4    A    
C14   H3    S    
C30   N8    T    
N1    H6    S    
C7    H9    S    
C22   C23   A    
C26   N4    T    
C14   C15   D    
C4    C5    A    
C19   O8    A    
