data_mof_unit_pretest_1731.cif
_audit_creation_date              2012-10-26T19:54:17-0400
_audit_creation_method            fapswitch 2.2
_symmetry_space_group_name_H-M    P1
_symmetry_Int_Tables_number       1
_space_group_crystal_system       triclinic
_cell_length_a                    15.908803
_cell_length_b                    16.005163
_cell_length_c                    14.774916
_cell_angle_alpha                 90.016296
_cell_angle_beta                  90.022871
_cell_angle_gamma                 89.985215
_cell_volume                      3762.03264023

loop_
_atom_site_label
_atom_site_type_symbol
_atom_type_description
_atom_site_fract_x
_atom_site_fract_y
_atom_site_fract_z
_atom_type_partial_charge
C1    C     C_R   0.500021 0.340880 0.499975 0.553771
C2    C     C_1   0.499992 0.748169 0.499967 0.060906
C3    C     C_R   0.553917 0.552318 0.951474 -0.094914
C4    C     C_R   0.446083 0.447682 0.048526 -0.094914
C5    C     C_R   0.499436 0.499477 0.902830 -0.026045
C6    C     C_R   0.500564 0.500523 0.097169 -0.026045
C7    C     C_R   0.445244 0.446891 0.952757 0.258608
C8    C     C_R   0.554756 0.553109 0.047242 0.258608
C9    C     C_1   0.499796 0.499846 0.802651 0.237434
C10   C     C_1   0.500204 0.500154 0.197349 0.237434
C11   C     C_R   0.339500 0.499980 0.499981 0.551170
C12   C     C_R   0.499979 0.659120 0.500025 0.553771
C13   C     C_R   0.660500 0.500019 0.500019 0.551169
C14   C     C_3   0.972100 0.431621 0.542586 0.214752
C15   C     C_3   0.027900 0.568379 0.457414 0.214752
C16   C     C_3   0.027912 0.431745 0.457119 0.214080
C17   C     C_3   0.972088 0.568255 0.542881 0.214080
C18   C     C_1   0.250092 0.499974 0.499974 0.082962
C19   C     C_1   0.749908 0.500026 0.500026 0.082962
C20   C     C_3   0.027979 0.499860 0.585448 0.216278
C21   C     C_3   0.972021 0.500140 0.414552 0.216278
C22   C     C_3   0.083379 0.499985 0.499982 -0.072095
C23   C     C_R   0.500039 0.912695 0.499038 0.004938
C24   C     C_3   0.916621 0.500015 0.500018 -0.072095
C25   C     C_1   0.174788 0.499975 0.499973 0.108928
C26   C     C_1   0.825212 0.500025 0.500027 0.108928
C27   C     C_R   0.497077 0.955646 0.581500 -0.087544
C28   C     C_R   0.502923 0.044354 0.418500 -0.087544
C29   C     C_R   0.499961 0.087304 0.500962 0.004938
C30   C     C_R   0.502980 0.957123 0.417106 0.266115
C31   C     C_R   0.497020 0.042877 0.582894 0.266115
C32   C     C_1   0.500012 0.823166 0.499638 0.048217
C33   C     C_1   0.499988 0.176834 0.500362 0.048217
C34   C     C_1   0.500008 0.251831 0.500033 0.060906
Cl1   Cl    Cl    0.065720 0.341089 0.400175 -0.360413
Cl2   Cl    Cl    0.375226 0.378974 0.897148 -0.424603
Cl3   Cl    Cl    0.934280 0.658911 0.599825 -0.360413
Cl4   Cl    Cl    0.934313 0.340802 0.599152 -0.353790
Cl5   Cl    Cl    0.065687 0.659198 0.400848 -0.353790
Cl6   Cl    Cl    0.934111 0.500340 0.301064 -0.337410
Cl7   Cl    Cl    0.065889 0.499659 0.698936 -0.337411
Cl8   Cl    Cl    0.493232 0.094625 0.688034 -0.438699
Cl9   Cl    Cl    0.506768 0.905375 0.311966 -0.438699
Cl10  Cl    Cl    0.624774 0.621026 0.102852 -0.424603
Cu1   Cu    Cu3+1 0.500020 0.500000 0.589220 1.116851
Cu2   Cu    Cu3+1 0.499980 0.500000 0.410780 1.116851
H1    H     H_    0.494810 0.921360 0.644713 0.176166
H2    H     H_    0.505190 0.078640 0.355287 0.176166
H3    H     H_    0.596140 0.593288 0.914904 0.177045
H4    H     H_    0.403860 0.406712 0.085096 0.177045
N1    N     N_1   0.500030 0.499980 0.276710 -0.157869
N2    N     N_1   0.499970 0.500020 0.723290 -0.157869
O1    O     O_R   0.500040 0.380310 0.575320 -0.465116
O2    O     O_R   0.499960 0.619690 0.424680 -0.465116
O3    O     O_R   0.500000 0.380310 0.424640 -0.502846
O4    O     O_R   0.500000 0.619690 0.575360 -0.502846
O5    O     O_R   0.379100 0.499990 0.575330 -0.475314
O6    O     O_R   0.620900 0.500010 0.424670 -0.475314
O7    O     O_R   0.379060 0.499990 0.424640 -0.491564
O8    O     O_R   0.620940 0.500010 0.575360 -0.491563

loop_
_geom_bond_atom_site_label_1
_geom_bond_atom_site_label_2
_ccdc_geom_bond_type
Cu2   O3    S    
C6    C10   S    
C16   C22   S    
C11   C18   S    
C5    C9    S    
C16   C21   S    
C31   Cl8   S    
C23   C27   A    
Cu2   O7    S    
C14   Cl4   S    
C7    Cl2   S    
C27   H1    S    
C2    C12   S    
C23   C32   S    
Cu2   O2    S    
C28   C30   A    
C20   Cl7   S    
C1    O3    A    
Cu1   O1    S    
C29   C31   A    
C13   O8    A    
C17   Cl3   S    
Cu1   Cu2   S    
Cu2   O6    S    
C21   Cl6   S    
C15   Cl5   S    
C12   O4    A    
C9    N2    T    
C4    C7    A    
C11   O7    A    
C10   N1    T    
C2    C32   T    
C28   C29   A    
C24   C26   S    
C1    C34   S    
C33   C34   T    
C5    C7    A    
C20   C22   S    
C16   Cl1   S    
C3    H3    S    
Cu1   O5    S    
C18   C25   T    
C14   C16   S    
C30   Cl9   S    
C17   C24   S    
C13   C19   S    
C27   C31   A    
C23   C30   A    
C29   C33   S    
C15   C21   S    
C17   C20   S    
C14   C20   S    
C4    C6    A    
C3    C8    A    
C21   C24   S    
C14   C24   S    
C15   C17   S    
C19   C26   T    
C1    O1    A    
C28   H2    S    
Cu1   O8    S    
C6    C8    A    
C13   O6    A    
Cu1   N2    S    
C11   O5    A    
Cu2   N1    S    
C15   C22   S    
C12   O2    A    
C8    Cl10  S    
Cu1   O4    S    
C4    H4    S    
C3    C5    A    
C22   C25   S    
