data_mof_unit_pretest_1821.cif
_audit_creation_date              2012-10-26T17:49:26-0400
_audit_creation_method            fapswitch 2.2
_symmetry_space_group_name_H-M    P1
_symmetry_Int_Tables_number       1
_space_group_crystal_system       triclinic
_cell_length_a                    21.796424
_cell_length_b                    21.776039
_cell_length_c                    22.351896
_cell_angle_alpha                 119.717937
_cell_angle_beta                  119.456537
_cell_angle_gamma                 90.037846
_cell_volume                      7591.97729132

loop_
_atom_site_label
_atom_site_type_symbol
_atom_type_description
_atom_site_fract_x
_atom_site_fract_y
_atom_site_fract_z
_atom_type_partial_charge
C1    C     C_R   0.498381 0.116933 0.496659 0.533920
C2    C     C_3   0.207416 0.710675 0.917480 0.061765
C3    C     C_3   0.794226 0.208667 0.047432 -0.213863
C4    C     C_3   0.239278 0.793508 0.952840 -0.212696
C5    C     C_3   0.745616 0.160275 0.950325 -0.214085
C6    C     C_3   0.287815 0.842046 0.049965 -0.214667
C7    C     C_1   0.838324 0.336032 0.174858 -0.070639
C8    C     C_1   0.161430 0.664332 0.825204 -0.068677
C9    C     C_1   0.663349 0.161720 0.825119 -0.068780
C10   C     C_1   0.336371 0.839074 0.174957 -0.074078
C11   C     C_1   0.625385 0.124323 0.749659 -0.022911
C12   C     C_R   0.502185 0.883501 0.504395 0.536127
C13   C     C_1   0.374490 0.876228 0.250394 -0.029161
C14   C     C_R   0.360670 0.128304 0.383115 -0.057748
C15   C     C_R   0.460355 0.862385 0.602268 -0.059481
C16   C     C_R   0.580090 0.079819 0.659846 0.548829
C17   C     C_R   0.419892 0.920356 0.340171 0.547568
C18   C     C_R   0.293393 0.137767 0.337949 0.157628
C19   C     C_R   0.426725 0.846354 0.634840 0.155493
C20   C     C_R   0.293515 0.208484 0.353969 -0.111871
C21   C     C_R   0.413170 0.775085 0.618137 -0.110803
C22   C     C_R   0.360414 0.266968 0.408757 -0.118450
C23   C     C_1   0.875795 0.374080 0.250315 -0.027101
C24   C     C_R   0.435056 0.721604 0.572058 -0.121328
C25   C     C_R   0.429168 0.256518 0.449390 0.013256
C26   C     C_R   0.471295 0.737918 0.541442 0.013458
C27   C     C_R   0.428601 0.188144 0.441668 -0.010130
C28   C     C_R   0.478550 0.807100 0.550875 -0.011627
C29   C     C_R   0.496210 0.181201 0.491696 -0.026239
C30   C     C_R   0.504978 0.819185 0.509786 -0.031793
C31   C     C_R   0.563705 0.237378 0.540119 -0.102236
C32   C     C_R   0.531723 0.767057 0.468996 -0.109182
C33   C     C_R   0.566017 0.302304 0.542014 -0.015399
C34   C     C_1   0.124029 0.626062 0.749728 -0.023050
C35   C     C_R   0.531537 0.701626 0.466055 -0.024001
C36   C     C_R   0.498192 0.312870 0.498050 -0.022800
C37   C     C_R   0.500072 0.686516 0.501418 -0.022739
C38   C     C_R   0.764470 0.436910 0.463565 -0.105714
C39   C     C_R   0.247944 0.553195 0.564974 -0.115273
C40   C     C_R   0.728657 0.640637 0.586651 -0.084330
C41   C     C_R   0.235201 0.373130 0.354668 -0.101500
C42   C     C_R   0.818819 0.504894 0.508855 -0.027483
C43   C     C_R   0.181453 0.497278 0.495110 -0.016055
C44   C     C_R   0.883440 0.502164 0.504055 0.537002
C45   C     C_3   0.709595 0.207590 0.917372 0.062201
C46   C     C_R   0.117681 0.499633 0.499280 0.534719
C47   C     C_R   0.920289 0.419726 0.340123 0.543905
C48   C     C_R   0.079584 0.580299 0.659891 0.546034
C49   C     C_R   0.619130 0.500415 0.500264 0.499546
C50   C     C_R   0.380115 0.498254 0.499484 0.521041
C51   C     C_R   0.499582 0.380711 0.499549 0.512826
C52   C     C_R   0.500564 0.619111 0.500352 0.513407
C53   C     C_R   0.740907 0.571901 0.547544 0.023891
C54   C     C_R   0.242192 0.436412 0.425586 0.021753
C55   C     C_R   0.866315 0.642773 0.609017 -0.091311
C56   C     C_3   0.290057 0.793243 0.082728 0.062915
C57   C     C_R   0.107417 0.383870 0.352550 -0.091598
C58   C     C_R   0.853636 0.709519 0.648882 -0.117780
C59   C     C_R   0.102630 0.324629 0.283498 -0.120960
C60   C     C_R   0.784492 0.708507 0.636357 -0.106104
C61   C     C_R   0.166514 0.318851 0.284985 -0.134065
C62   C     C_R   0.699195 0.434369 0.460828 -0.014566
C63   C     C_R   0.313034 0.554319 0.567942 -0.014804
C64   C     C_R   0.686688 0.502205 0.501648 -0.028849
C65   C     C_R   0.311284 0.495996 0.497631 -0.038154
C66   C     C_R   0.809223 0.573207 0.554736 0.027348
C67   C     C_3   0.710207 0.287704 0.048296 -0.212018
C68   C     C_R   0.176732 0.439182 0.424483 0.024100
C69   C     C_3   0.661642 0.239345 0.951241 -0.213915
C70   C     C_3   0.322042 0.731183 0.048225 -0.211717
C71   C     C_3   0.772709 0.274070 0.952806 -0.211934
C72   C     C_3   0.209110 0.755533 0.047788 -0.212999
C73   C     C_3   0.821292 0.322431 0.049881 -0.214182
C74   C     C_3   0.160558 0.706982 0.950685 -0.213661
C75   C     C_3   0.221698 0.012508 0.210447 -0.312257
C76   C     C_3   0.356242 0.932996 0.647411 -0.300973
C77   C     C_2   0.639830 0.357036 0.587995 0.245194
C78   C     C_3   0.273521 0.682705 0.951203 -0.212659
C79   C     C_2   0.565527 0.650499 0.427023 0.228320
C80   C     C_2   0.645990 0.360326 0.417269 0.243695
C81   C     C_2   0.380453 0.619109 0.645720 0.231818
C82   C     C_3   0.792280 0.289922 0.082613 0.062780
Cu1   Cu    Cu3+1 0.438180 0.999990 0.500010 0.929909
Cu2   Cu    Cu3+1 0.561820 0.000010 0.499990 0.971307
Cu3   Cu    Cu3+1 0.000200 0.561800 0.499990 0.944576
Cu4   Cu    Cu3+1 0.999800 0.438200 0.500010 0.965040
Cu5   Cu    Cu3+1 0.541330 0.541310 0.582630 0.946892
Cu6   Cu    Cu3+1 0.458670 0.458690 0.417370 0.929221
H1    H     H_    0.774402 0.760491 0.666332 0.117736
H2    H     H_    0.308418 0.685064 0.928628 0.131652
H3    H     H_    0.852579 0.208513 0.070782 0.112985
H4    H     H_    0.192937 0.815233 0.929895 0.115769
H5    H     H_    0.615171 0.229988 0.576339 0.182891
H6    H     H_    0.552805 0.777579 0.438852 0.187021
H7    H     H_    0.359176 0.073606 0.371013 0.144829
H8    H     H_    0.474309 0.919020 0.620099 0.145598
H9    H     H_    0.241804 0.217982 0.322668 0.107086
H10   H     H_    0.386156 0.761054 0.641493 0.117460
H11   H     H_    0.357974 0.320660 0.419876 0.129248
H12   H     H_    0.163010 0.271728 0.231815 0.106498
H13   H     H_    0.422498 0.666964 0.559478 0.117222
H14   H     H_    0.676022 0.642976 0.579240 0.126869
H15   H     H_    0.280962 0.361797 0.350039 0.142423
H16   H     H_    0.773350 0.385138 0.430020 0.185330
H17   H     H_    0.248523 0.597155 0.617926 0.163718
H18   H     H_    0.921718 0.646727 0.622973 0.138786
H19   H     H_    0.056158 0.385910 0.348797 0.125818
H20   H     H_    0.897643 0.762273 0.689513 0.111779
H21   H     H_    0.049297 0.282627 0.229078 0.108101
H22   H     H_    0.707059 0.345395 0.072298 0.125637
H23   H     H_    0.780715 0.136948 0.927230 0.118197
H24   H     H_    0.252271 0.623345 0.927097 0.124876
H25   H     H_    0.635279 0.273917 0.928845 0.123840
H26   H     H_    0.323993 0.695000 0.070506 0.125427
H27   H     H_    0.808324 0.252881 0.929766 0.122927
H28   H     H_    0.184574 0.798925 0.071257 0.114646
H29   H     H_    0.748446 0.309301 0.930444 0.126127
H30   H     H_    0.208904 0.719858 0.070105 0.123460
H31   H     H_    0.820266 0.380785 0.073926 0.124587
H32   H     H_    0.137178 0.648089 0.926585 0.124178
H33   H     H_    0.880140 0.324356 0.073269 0.117953
H34   H     H_    0.264664 0.886957 0.073488 0.109639
H35   H     H_    0.112755 0.727102 0.927698 0.117227
H36   H     H_    0.701507 0.112204 0.926144 0.122993
H37   H     H_    0.345267 0.869736 0.073869 0.125778
H38   H     H_    0.177993 0.092612 0.260225 0.248521
H39   H     H_    0.166349 0.969228 0.168613 0.140375
H40   H     H_    0.264590 0.987637 0.233166 0.150554
H41   H     H_    0.229583 0.028269 0.173802 0.138529
H42   H     H_    0.395672 0.889240 0.718181 0.254743
H43   H     H_    0.345975 0.975891 0.692711 0.144230
H44   H     H_    0.302476 0.888082 0.591813 0.147681
H45   H     H_    0.773371 0.183724 0.069681 0.124588
H46   H     H_    0.378861 0.960368 0.628491 0.158237
H47   H     H_    0.644218 0.402338 0.581013 0.126072
H48   H     H_    0.570408 0.601527 0.428151 0.131974
H49   H     H_    0.599534 0.356318 0.422530 0.125623
H50   H     H_    0.424182 0.641722 0.645382 0.132561
H51   H     H_    0.273542 0.797962 0.930316 0.126841
H52   H     H_    0.615965 0.192744 0.927068 0.124551
H53   H     H_    0.380143 0.756725 0.072046 0.128302
H54   H     H_    0.687751 0.264232 0.070536 0.126645
N1    N     N_2   0.225223 0.077223 0.279440 -0.511925
N2    N     N_2   0.408430 0.902406 0.686296 -0.520051
O1    O     O_R   0.447780 0.090160 0.499990 -0.510619
O2    O     O_R   0.447800 0.909820 0.500020 -0.518362
O3    O     O_R   0.508070 0.060270 0.620570 -0.512550
O4    O     O_R   0.491930 0.939730 0.379430 -0.495298
O5    O     O_R   0.612490 0.060290 0.620560 -0.499633
O6    O     O_R   0.387510 0.939710 0.379440 -0.509386
O7    O     O_R   0.910000 0.552200 0.500000 -0.510503
O8    O     O_R   0.090000 0.447800 0.500000 -0.505482
O9    O     O_R   0.909970 0.447830 0.500020 -0.505535
O10   O     O_R   0.090030 0.552170 0.499980 -0.509750
O11   O     O_R   0.939920 0.491910 0.379430 -0.497474
O12   O     O_R   0.552220 0.909840 0.500010 -0.508822
O13   O     O_R   0.060080 0.508090 0.620570 -0.496880
O14   O     O_R   0.939890 0.387530 0.379440 -0.507916
O15   O     O_R   0.060110 0.612470 0.620560 -0.515565
O16   O     O_R   0.625100 0.534890 0.569750 -0.514424
O17   O     O_R   0.374900 0.465110 0.430250 -0.520752
O18   O     O_2   0.697339 0.351605 0.633820 -0.500477
O19   O     O_2   0.589400 0.662862 0.393424 -0.502706
O20   O     O_2   0.653896 0.302245 0.375323 -0.500321
O21   O     O_2   0.387285 0.649709 0.712571 -0.511969
O22   O     O_R   0.555310 0.465120 0.430190 -0.516600
O23   O     O_R   0.444690 0.534880 0.569810 -0.515603
O24   O     O_R   0.534910 0.444720 0.569790 -0.505972
O25   O     O_R   0.465090 0.555280 0.430210 -0.507741
O26   O     O_R   0.465120 0.374940 0.430230 -0.518771
O27   O     O_R   0.534880 0.625060 0.569770 -0.516747
O28   O     O_R   0.552200 0.090180 0.499980 -0.505587

loop_
_geom_bond_atom_site_label_1
_geom_bond_atom_site_label_2
_ccdc_geom_bond_type
C46   O8    A    
Cu5   Cu6   S    
C63   C65   A    
C9    C45   S    
C19   N2    S    
C40   C60   A    
C70   C78   S    
Cu2   O12   S    
C50   C65   S    
C14   C18   A    
C32   H6    S    
C17   O6    A    
C41   C61   A    
C54   C65   A    
Cu3   Cu4   S    
C70   H26   S    
C15   C19   A    
C79   H48   S    
C5    H36   S    
C69   H25   S    
C76   H43   S    
C63   C81   S    
C16   O3    A    
C73   H31   S    
C44   O9    A    
C62   C80   S    
C18   N1    S    
C19   C21   A    
Cu4   O9    S    
C24   C26   A    
C38   C42   A    
C53   C64   A    
C57   C59   A    
C27   C29   A    
C58   C60   A    
C80   H49   S    
H38   N1    S    
C33   C36   A    
Cu5   O16   S    
C3    H3    S    
C75   H40   S    
Cu3   O11   S    
C12   O2    A    
C80   O20   D    
C38   H16   S    
Cu1   O1    S    
C1    O1    A    
Cu5   O23   S    
C20   H9    S    
Cu1   Cu2   S    
C43   C68   A    
C56   C72   S    
C22   C25   A    
C62   C64   A    
C31   C33   A    
C49   O16   A    
C16   O5    A    
Cu6   O25   S    
C14   C27   A    
H42   N2    S    
C75   H39   S    
C2    C74   S    
Cu1   O6    S    
Cu2   O5    S    
C69   H52   S    
C74   H35   S    
C49   C64   S    
C50   O17   A    
C51   O24   A    
C42   C44   S    
C12   O12   A    
C52   O27   A    
Cu4   O13   S    
Cu2   O4    S    
C81   H50   S    
C46   O10   A    
C48   O15   A    
C59   C61   A    
C44   O7    A    
C23   C47   S    
C71   H29   S    
C55   H18   S    
C45   C69   S    
C32   C35   A    
C17   O4    A    
Cu6   O26   S    
C4    C6    S    
C79   O19   D    
C15   H8    S    
C71   C73   S    
C37   C52   S    
C76   H46   S    
C39   C43   A    
C5    H23   S    
C3    C5    S    
C31   H5    S    
C38   C62   A    
C5    C45   S    
C78   H2    S    
C41   H15   S    
Cu3   O15   S    
C3    H45   S    
C2    C4    S    
Cu3   O7    S    
C2    C78   S    
Cu4   O8    S    
Cu1   O2    S    
C9    C11   T    
C11   C16   S    
C67   H22   S    
Cu5   O24   S    
Cu5   O27   S    
C3    C82   S    
C1    C29   S    
C71   H27   S    
C8    C34   T    
C53   C66   A    
Cu4   O14   S    
C36   C51   S    
C75   N1    S    
Cu1   O3    S    
C76   N2    S    
C72   C74   S    
C57   H19   S    
C20   C22   A    
Cu6   O22   S    
C21   C24   A    
C61   H12   S    
C34   C48   S    
C6    H34   S    
C57   C68   A    
C56   C70   S    
C14   H7    S    
C55   C66   A    
C10   C56   S    
C45   C71   S    
C35   C37   A    
C77   O18   D    
C39   H17   S    
C58   H20   S    
C60   H1    S    
C70   H53   S    
C22   H11   S    
C12   C30   S    
C26   C28   A    
C51   O26   A    
C2    C8    S    
C6    H37   S    
C6    C56   S    
Cu2   O28   S    
C10   C13   T    
C52   O25   A    
C26   C37   A    
C25   C27   A    
C39   C63   A    
C48   O13   A    
C72   H28   S    
C1    O28   A    
C73   H33   S    
C13   C17   S    
C24   H13   S    
C28   C30   A    
C49   O22   A    
C29   C31   A    
C4    H51   S    
C30   C32   A    
C21   H10   S    
C76   H44   S    
C33   C77   S    
C15   C28   A    
C47   O11   A    
C7    C23   T    
C35   C79   S    
C59   H21   S    
C73   C82   S    
C18   C20   A    
Cu3   O10   S    
C43   C46   S    
C41   C54   A    
Cu6   O17   S    
C25   C36   A    
C40   H14   S    
C74   H32   S    
C7    C82   S    
C54   C68   A    
C67   C82   S    
C40   C53   A    
C55   C58   A    
C72   H30   S    
C50   O23   A    
C42   C66   A    
C81   O21   D    
C78   H24   S    
C77   H47   S    
C67   C69   S    
C67   H54   S    
C75   H41   S    
C4    H4    S    
C47   O14   A    
