data_mof_unit_pretest_537.cif
_audit_creation_date              2012-12-10T16:59:17-0500
_audit_creation_method            fapswitch 2.2
_symmetry_space_group_name_H-M    P1
_symmetry_Int_Tables_number       1
_space_group_crystal_system       triclinic
_cell_length_a                    7.729721
_cell_length_b                    8.621986
_cell_length_c                    27.371543
_cell_angle_alpha                 91.035711
_cell_angle_beta                  86.036114
_cell_angle_gamma                 93.451891
_cell_volume                      1816.34862055

loop_
_atom_site_label
_atom_site_type_symbol
_atom_type_description
_atom_site_fract_x
_atom_site_fract_y
_atom_site_fract_z
_atom_type_partial_charge
C1    C     C_R   0.545101 0.794309 0.498431 0.913171
C2    C     C_R   0.454904 0.205671 0.501328 0.930301
C3    C     C_R   0.482333 0.654322 0.899318 -0.086645
C4    C     C_R   0.451914 0.684648 0.106029 -0.082159
C5    C     C_R   0.635072 0.706383 0.871367 -0.043439
C6    C     C_R   0.308919 0.612684 0.133794 -0.038397
C7    C     C_R   0.770143 0.787022 0.895024 0.132630
C8    C     C_R   0.160609 0.558790 0.110022 0.129625
C9    C     C_R   0.343674 0.579260 0.875538 -0.036564
C10   C     C_R   0.597624 0.745022 0.130008 -0.046779
C11   C     C_R   0.513704 0.536406 0.646005 -0.183528
C12   C     C_R   0.494279 0.529925 0.353888 -0.177270
C13   C     C_R   0.600773 0.758092 0.026820 0.058904
C14   C     C_R   0.314038 0.620709 0.978361 0.062717
C15   C     C_R   0.306347 0.628793 0.030312 0.026674
C16   C     C_R   0.609053 0.748937 0.974836 0.023499
C17   C     C_R   0.452212 0.691897 0.054223 0.078452
C18   C     C_R   0.468168 0.675584 0.951002 0.078184
C19   C     C_R   0.739044 0.826502 0.052683 -0.216743
C20   C     C_R   0.175064 0.553188 0.952623 -0.228014
C21   C     C_R   0.736954 0.820039 0.103192 -0.140736
C22   C     C_R   0.190664 0.531713 0.902392 -0.145819
C23   C     C_R   0.503348 0.504968 0.593952 0.903698
C24   C     C_R   0.497314 0.500343 0.405922 0.893080
C25   C     C_R   0.756351 0.806681 0.945744 -0.270506
C26   C     C_R   0.159694 0.569599 0.059366 -0.275307
C27   C     C_2   0.566637 0.956207 0.504698 -0.104842
C28   C     C_2   0.433453 0.043734 0.495020 -0.099551
C29   C     C_R   0.645974 0.676434 0.820449 0.636428
C30   C     C_R   0.322082 0.593558 0.184375 0.634730
C31   C     C_R   0.360265 0.554112 0.824985 0.619609
C32   C     C_R   0.603528 0.724199 0.180349 0.613653
C33   C     C_R   0.576310 0.443955 0.725364 0.440188
C34   C     C_R   0.415410 0.706958 0.292628 0.422103
C35   C     C_R   0.573793 0.421764 0.674967 -0.266169
C36   C     C_R   0.419822 0.666632 0.341242 -0.275351
C37   C     C_R   0.462879 0.679458 0.667267 0.023445
C38   C     C_R   0.565908 0.430537 0.317109 0.030332
C39   C     C_R   0.463064 0.699605 0.718090 0.408322
C40   C     C_R   0.561941 0.472757 0.267907 0.412560
C41   C     C_R   0.518702 0.581993 0.746933 0.074504
C42   C     C_R   0.485557 0.609925 0.255917 0.090222
H1    H     H_    0.014189 0.382290 0.463483 0.198170
H2    H     H_    0.985816 0.617725 0.536513 0.198446
H3    H     H_    0.366313 0.743427 0.369466 0.195300
H4    H     H_    0.614782 0.313561 0.658465 0.194298
H5    H     H_    0.848588 0.870002 0.121042 0.203363
H6    H     H_    0.081231 0.476924 0.884646 0.204107
H7    H     H_    0.853833 0.883848 0.035311 0.147983
H8    H     H_    0.051912 0.512649 0.969871 0.149723
H9    H     H_    0.866122 0.867508 0.960937 0.142823
H10   H     H_    0.041501 0.525971 0.044150 0.143418
N1    N     N_R   0.509797 0.601768 0.798880 -0.334753
N2    N     N_R   0.469403 0.645419 0.205793 -0.332201
N3    N     N_2   0.950320 0.457960 0.486880 -0.161914
N4    N     N_2   0.049680 0.542040 0.513120 -0.161607
O1    O     O_R   0.389250 0.738570 0.503220 -0.598253
O2    O     O_R   0.610750 0.261430 0.496780 -0.593116
O3    O     O_R   0.678390 0.711630 0.494810 -0.637594
O4    O     O_R   0.321610 0.288370 0.505190 -0.638946
O5    O     O_R   0.355440 0.513440 0.575450 -0.597653
O6    O     O_R   0.644560 0.486560 0.424550 -0.601840
O7    O     O_R   0.644590 0.486500 0.567040 -0.619451
O8    O     O_R   0.355410 0.513500 0.432960 -0.616858
O9    O     O_2   0.790257 0.720831 0.792410 -0.458513
O10   O     O_2   0.191366 0.521236 0.212109 -0.458686
O11   O     O_2   0.743577 0.778757 0.203643 -0.486965
O12   O     O_2   0.227904 0.483056 0.801821 -0.486810
Zn1   Zn    Zn3+2 0.306940 0.517990 0.505620 0.970620
Zn2   Zn    Zn3+2 0.693060 0.482010 0.494380 0.970029
N5    N     N_3   0.412874 0.806166 0.638632 -0.378919
H11   H     H_    0.501461 0.900539 0.643854 0.213029
H12   H     H_    0.424463 0.782302 0.601202 0.178779
N6    N     N_3   0.637612 0.285769 0.328201 -0.357050
H13   H     H_    0.560001 0.196231 0.313111 0.253583
H14   H     H_    0.630401 0.265101 0.365706 0.178012
Cl1   Cl    Cl    0.391026 0.872628 0.746119 -0.483558
Cl2   Cl    Cl    0.649029 0.351716 0.220837 -0.526841
N7    N     N_3   0.922252 0.851860 0.867973 -0.334191
H15   H     H_    0.031396 0.806054 0.881427 0.198920
H16   H     H_    0.930470 0.971868 0.874496 0.215185
N8    N     N_3   0.010452 0.488803 0.136675 -0.319450
H17   H     H_    0.902996 0.550701 0.129678 0.206429
H18   H     H_    0.989001 0.375404 0.123292 0.213408
Cl3   Cl    Cl    0.320421 0.879446 0.278285 -0.532024
Cl4   Cl    Cl    0.647340 0.295944 0.761173 -0.482291
N9    N     N_3   0.720292 0.018052 0.527053 -0.425642
H19   H     H_    0.828965 0.991876 0.504189 0.200711
H20   H     H_    0.727913 0.962544 0.560438 0.173851
N10   N     N_3   0.279816 0.981784 0.472678 -0.427496
H21   H     H_    0.171111 0.008080 0.495512 0.199087
H22   H     H_    0.272300 0.037055 0.439249 0.184136

loop_
_geom_bond_atom_site_label_1
_geom_bond_atom_site_label_2
_ccdc_geom_bond_type
C22   H6    S    
N9    H19   S    
C8    C26   A    
C14   C18   A    
C34   C42   A    
N3    N4    D    
C39   C41   A    
C30   N2    A    
N6    H14   S    
C8    N8    S    
C39   Cl1   S    
C19   C21   A    
C1    O1    A    
C1    O3    A    
C2    O4    A    
C9    C22   A    
O6    Zn2   S    
C3    C18   A    
C11   C37   A    
C19   H7    S    
C20   H8    S    
C12   C36   A    
C23   O7    A    
C24   O8    A    
C32   N2    A    
C5    C29   A    
C10   C21   A    
C31   O12   S    
N6    H13   S    
C13   C19   A    
C14   C20   A    
C4    C6    A    
C5    C7    A    
O2    Zn2   S    
C15   C26   A    
C6    C8    A    
C34   Cl3   S    
C33   Cl4   S    
C25   H9    S    
C3    C9    A    
C26   H10   S    
H2    N4    S    
N10   H22   S    
O7    Zn2   S    
C36   H3    S    
O8    Zn1   S    
C31   N1    A    
C27   N9    S    
C41   N1    S    
C30   O10   S    
C32   O11   S    
C29   O9    S    
C4    C17   A    
H1    N3    S    
C6    C30   A    
C20   C22   A    
N4    Zn1   S    
N8    H18   S    
C37   N5    S    
C40   Cl2   S    
C4    C10   A    
C7    N7    S    
C38   N6    S    
O5    Zn1   S    
C16   C25   A    
C15   C17   A    
C24   O6    A    
C40   C42   A    
C3    C5    A    
C28   N10   S    
C2    O2    A    
C12   C24   S    
N7    H16   S    
C7    C25   A    
C13   C17   A    
C33   C41   A    
C11   C35   A    
N5    H11   S    
C37   C39   A    
C42   N2    S    
C38   C40   A    
N10   H21   S    
C29   N1    A    
O4    Zn1   S    
C11   C23   S    
C33   C35   A    
C34   C36   A    
C12   C38   A    
N3    Zn2   S    
C9    C31   A    
O3    Zn2   S    
N7    H15   S    
C10   C32   A    
C23   O5    A    
C16   C18   A    
N8    H17   S    
C13   C16   A    
N5    H12   S    
C27   C28   D    
C1    C27   S    
N9    H20   S    
C14   C15   A    
C2    C28   S    
O1    Zn1   S    
C35   H4    S    
C21   H5    S    
