data_mof_unit_pretest_63.cif
_audit_creation_date              2013-03-05T15:52:29-0500
_audit_creation_method            fapswitch 2.2
_symmetry_space_group_name_H-M    P1
_symmetry_Int_Tables_number       1
_space_group_crystal_system       triclinic
_cell_length_a                    27.754519
_cell_length_b                    10.858461
_cell_length_c                    9.58601
_cell_angle_alpha                 89.857384
_cell_angle_beta                  89.980417
_cell_angle_gamma                 92.75804
_cell_volume                      2885.59321302

loop_
_atom_site_label
_atom_site_type_symbol
_atom_site_description
_atom_site_fract_x
_atom_site_fract_y
_atom_site_fract_z
_atom_type_partial_charge
O1    O     O_R   0.500000 0.319640 0.618810 -0.599161
O2    O     O_R   0.500000 0.319660 0.381240 -0.579361
C1    C     C_R   0.503482 0.262845 0.501162 0.791397
O3    O     O_R   0.430260 0.500010 0.618770 -0.584249
O4    O     O_R   0.430270 0.500030 0.381200 -0.580817
C2    C     C_R   0.407488 0.499197 0.500033 0.814870
Cu1   Cu    Cu3+1 0.500000 0.499990 0.640660 0.943688
Cu2   Cu    Cu3+1 0.500000 0.500010 0.359340 0.957443
O5    O     O_R   0.500000 0.680340 0.618760 -0.608718
O6    O     O_R   0.500000 0.680360 0.381190 -0.600982
O7    O     O_R   0.569730 0.499970 0.618800 -0.587160
O8    O     O_R   0.569740 0.499990 0.381230 -0.577239
C3    C     C_R   0.496851 0.737244 0.500779 0.822509
C4    C     C_R   0.592160 0.498367 0.500131 0.843593
C5    C     C_R   0.175959 0.403047 0.424709 0.572666
O9    O     O_2   0.199563 0.317072 0.354021 -0.511886
N1    N     N_R   0.201413 0.491060 0.499976 -0.457963
C6    C     C_R   0.178539 0.580067 0.571735 0.603103
C7    C     C_R   0.278245 0.459154 0.622155 0.318284
C8    C     C_R   0.328603 0.462928 0.621620 -0.237258
C9    C     C_R   0.329141 0.527694 0.379319 -0.204245
C10   C     C_R   0.278886 0.525700 0.380075 -0.134050
C11   C     C_R   0.253160 0.491768 0.501089 0.285962
C12   C     C_R   0.101019 0.489608 0.498419 -0.044242
C13   C     C_R   0.125354 0.401571 0.421083 -0.023698
C14   C     C_R   0.098777 0.313992 0.342383 -0.123124
C15   C     C_R   0.127937 0.579963 0.573868 -0.042290
C16   C     C_R   0.354427 0.497027 0.500364 -0.092250
H1    H     H_    0.348188 0.554382 0.284506 0.173143
H2    H     H_    0.259801 0.550793 0.286478 0.171165
H3    H     H_    0.116584 0.244416 0.283287 0.194808
C17   C     C_R   0.644527 0.492929 0.500938 -0.097780
C18   C     C_R   0.972409 0.407255 0.406268 0.042798
C19   C     C_R   0.974809 0.554593 0.601171 0.034198
C20   C     C_R   0.948281 0.479077 0.505011 0.079351
C21   C     C_R   0.944593 0.342170 0.304455 -0.201230
C22   C     C_R   0.894487 0.344058 0.303843 -0.126800
C23   C     C_R   0.870289 0.408612 0.406402 -0.026756
C24   C     C_R   0.897122 0.474556 0.508632 -0.045437
C25   C     C_R   0.872792 0.535837 0.614733 -0.027944
C26   C     C_R   0.822184 0.532381 0.614907 0.555273
N2    N     N_R   0.796687 0.472615 0.510766 -0.461338
C27   C     C_R   0.819714 0.410491 0.408020 0.558248
C28   C     C_R   0.715232 0.370954 0.514611 -0.053269
C29   C     C_R   0.665173 0.378029 0.511074 -0.232717
C30   C     C_R   0.674193 0.601160 0.495013 0.229080
C31   C     C_R   0.724216 0.593655 0.496686 -0.089337
C32   C     C_R   0.745047 0.478824 0.507049 0.264156
O10   O     O_2   0.793838 0.352353 0.306497 -0.511358
C33   C     C_R   0.023342 0.402594 0.413173 0.049112
C34   C     C_R   0.049874 0.487709 0.499460 0.066778
C35   C     C_R   0.025720 0.571565 0.585583 -0.009921
C36   C     C_R   0.048742 0.314977 0.337394 -0.195523
H4    H     H_    0.642498 0.294093 0.517036 0.169462
H5    H     H_    0.730852 0.281826 0.523853 0.180033
H6    H     H_    0.874759 0.293780 0.222884 0.195406
H7    H     H_    0.960749 0.292112 0.220910 0.148582
H8    H     H_    0.030682 0.243121 0.276723 0.148968
O11   O     O_2   0.204739 0.668496 0.640540 -0.509545
C37   C     C_R   0.104032 0.670994 0.645253 -0.164053
H9    H     H_    0.347451 0.437304 0.715467 0.180446
H10   H     H_    0.124591 0.745740 0.695885 0.196366
C38   C     C_R   0.949588 0.605180 0.713640 -0.185779
C39   C     C_R   0.899463 0.597299 0.719381 -0.129506
O12   O     O_2   0.798612 0.588443 0.718311 -0.507661
C40   C     C_R   0.053745 0.669877 0.648988 -0.042059
H11   H     H_    0.968090 0.646872 0.801861 0.161182
H12   H     H_    0.881726 0.639834 0.806317 0.196158
H13   H     H_    0.747044 0.677256 0.490915 0.184591
H14   H     H_    0.505653 0.111841 0.280210 0.163166
C41   C     C_R   0.520086 0.116645 0.764269 -0.109118
H15   H     H_    0.540412 0.203667 0.771555 0.171318
C42   C     C_R   0.509099 0.056105 0.889454 -0.106549
H16   H     H_    0.518460 0.099549 0.987964 0.145986
C43   C     C_R   0.484925 0.941256 0.887519 -0.143764
H17   H     H_    0.474118 0.896550 0.984443 0.134854
C44   C     C_R   0.476242 0.881763 0.760736 -0.149957
H18   H     H_    0.456044 0.794351 0.764789 0.166198
C45   C     C_R   0.492032 0.936720 0.633142 0.110738
C46   C     C_R   0.506781 0.062586 0.634327 0.107681
C47   C     C_R   0.507067 0.128636 0.505773 -0.122002
C48   C     C_R   0.504247 0.064055 0.379587 -0.161266
H19   H     H_    0.500784 0.889615 0.279909 0.167037
C49   C     C_R   0.499947 0.936797 0.379278 -0.157278
C50   C     C_R   0.494065 0.871538 0.504730 -0.104337
H20   H     H_    0.448313 0.353015 0.129664 0.138266
C51   C     C_R   0.560438 0.673647 0.142978 -0.256434
H21   H     H_    0.565881 0.675300 0.252494 0.249862
C52   C     C_R   0.586029 0.766812 0.070493 0.219757
C53   C     C_R   0.586768 0.764972 0.926052 0.247837
C54   C     C_R   0.561027 0.671772 0.855246 -0.237297
H22   H     H_    0.566467 0.673040 0.745802 0.247740
C55   C     C_R   0.529993 0.584545 0.924887 0.152311
C56   C     C_R   0.529881 0.584873 0.074363 0.162384
N3    N     N_R   0.500460 0.501210 0.147910 -0.183169
C57   C     C_R   0.471604 0.419186 0.074184 -0.048488
H23   H     H_    0.448290 0.353191 0.871036 0.141530
C58   C     C_R   0.471584 0.419301 0.926195 -0.060006
N4    N     N_R   0.500480 0.501290 0.852040 -0.188559
Br1   Br    Br    0.244877 0.405376 0.788264 -0.453192
Br2   Br    Br    0.647784 0.760412 0.489092 -0.413565
C59   C     C_1   0.033144 0.780623 0.701104 0.240862
N5    N     N_1   0.016891 0.869708 0.742475 -0.257117
Br3   Br    Br    0.619215 0.897119 0.171736 -0.377803
Br4   Br    Br    0.622594 0.889251 0.821432 -0.363737

loop_
_geom_bond_atom_site_label_1
_geom_bond_atom_site_label_2
_geom_bond_distance
_ccdc_geom_bond_type
C51   H21   1.060762 S    
C55   C56   1.432895 A    
C26   N2    1.370410 A    
C40   C59   1.446226 S    
C20   C24   1.418777 A    
N3    C57   1.367121 A    
C12   C15   1.406139 A    
C47   C48   1.400021 A    
Cu1   Cu2   2.696736 S    
C44   H18   1.079477 S    
Cu1   O7    1.946573 S    
N1    C11   1.435912 S    
Cu1   N4    2.026420 S    
C39   H12   1.083362 S    
C21   C22   1.391828 A    
C15   C37   1.397015 A    
C23   C24   1.407262 A    
O7    C4    1.297130 A    
C5    C13   1.404283 A    
C5    O9    1.349656 S    
C51   C56   1.416318 A    
C18   C21   1.414028 A    
C37   H10   1.085118 S    
C19   C20   1.417845 A    
C17   C29   1.400936 A    
C8    H9    1.083262 S    
O5    C3    1.292403 A    
C31   H13   1.083019 S    
C22   H6    1.083402 S    
C2    C16   1.471728 S    
H19   C49   1.083473 S    
C57   C58   1.418623 A    
C1    C47   1.466022 S    
C55   N4    1.381356 A    
C12   C34   1.418674 A    
C37   C40   1.395623 A    
C14   H3    1.083429 S    
C9    C10   1.393948 A    
C42   C43   1.387557 A    
C59   N5    1.157689 T    
Cu2   N3    2.026811 S    
O3    Cu1   1.947025 S    
C41   C46   1.419715 A    
H23   C58   1.081825 S    
C44   C45   1.419512 A    
C42   H16   1.082756 S    
C30   Br2   1.911079 S    
C38   H11   1.078725 S    
C33   C36   1.413303 A    
C34   C35   1.422041 A    
C12   C13   1.408881 A    
O3    C2    1.301952 A    
C21   H7    1.078553 S    
C54   H22   1.059849 S    
C41   C42   1.393459 A    
C27   O10   1.349557 S    
C26   O12   1.349818 S    
C8    C16   1.404855 A    
C33   C34   1.421038 A    
C18   C33   1.418521 A    
C9    H1    1.083105 S    
C38   C39   1.390782 A    
O1    C1    1.292540 A    
C7    C11   1.406856 A    
C43   H17   1.082787 S    
C22   C23   1.399002 A    
C54   C55   1.415124 A    
C31   C32   1.402737 A    
Cu2   O8    1.947020 S    
N1    C6    1.368350 A    
N2    C32   1.438512 S    
C49   C50   1.399810 A    
C43   C44   1.393408 A    
H20   C57   1.081737 S    
C25   C26   1.403296 A    
C9    C16   1.403887 A    
O8    C4    1.299253 A    
C29   H4    1.083750 S    
C48   C49   1.381256 A    
C51   C52   1.392013 A    
C52   Br3   1.916852 S    
N2    C27   1.370380 A    
C14   C36   1.390091 A    
C45   C50   1.423913 A    
C35   C40   1.427458 A    
C28   C29   1.395597 A    
Cu1   O5    1.969024 S    
C30   C31   1.394760 A    
C10   H2    1.082976 S    
O1    Cu1   1.970011 S    
C17   C30   1.403138 A    
O2    Cu2   1.969024 S    
C6    C15   1.404505 A    
C53   Br4   1.918073 S    
C4    C17   1.457481 S    
C46   C47   1.424117 A    
O6    C3    1.308432 A    
O4    Cu2   1.946576 S    
C36   H8    1.078490 S    
C5    N1    1.368130 A    
C19   C35   1.423928 A    
C25   C39   1.398563 A    
C7    C8    1.396314 A    
O2    C1    1.309098 A    
C13   C14   1.397862 A    
C41   H15   1.079378 S    
C7    Br1   1.917406 S    
C28   H5    1.082762 S    
C53   C54   1.389048 A    
O4    C2    1.302471 A    
C19   C38   1.411919 A    
C18   C20   1.416375 A    
C56   N3    1.383527 A    
H14   C48   1.083429 S    
C45   C46   1.407779 A    
C24   C25   1.406918 A    
C6    O11   1.349843 S    
C23   C27   1.404898 A    
Cu2   O6    1.970011 S    
C58   N4    1.367057 A    
C3    C50   1.464564 S    
C10   C11   1.401161 A    
C52   C53   1.384958 A    
C28   C32   1.402935 A    
