data_mof_unit_pretest_1101.cif
_audit_creation_date              2012-12-11T14:56:31-0500
_audit_creation_method            fapswitch 2.2
_symmetry_space_group_name_H-M    P1
_symmetry_Int_Tables_number       1
_space_group_crystal_system       triclinic
_cell_length_a                    10.570819
_cell_length_b                    10.659713
_cell_length_c                    17.102928
_cell_angle_alpha                 80.613479
_cell_angle_beta                  89.748013
_cell_angle_gamma                 119.248432
_cell_volume                      1651.044062

loop_
_atom_site_label
_atom_site_type_symbol
_atom_type_description
_atom_site_fract_x
_atom_site_fract_y
_atom_site_fract_z
_atom_type_partial_charge
C1    C     C_R   0.222410 0.854223 0.128647 0.588701
C2    C     C_R   0.798679 0.437669 0.260868 -0.058076
C3    C     C_R   0.789346 0.429163 0.181272 0.226861
C4    C     C_R   0.650881 0.345358 0.155967 0.013927
C5    C     C_1   0.669040 0.848826 0.205407 -0.020785
C6    C     C_1   0.680293 0.839117 0.274870 -0.023397
C7    C     C_1   0.180377 0.825674 0.211153 -0.020252
C8    C     C_1   0.151275 0.819473 0.279820 -0.045938
C9    C     C_1   0.644226 0.323914 0.778190 -0.033477
C10   C     C_1   0.651553 0.345751 0.707583 -0.036962
C11   C     C_R   0.616712 0.712587 0.803822 -0.186367
C12   C     C_R   0.636493 0.281058 0.085933 0.531786
C13   C     C_R   0.601964 0.700477 0.725473 -0.195830
C14   C     C_R   0.670190 0.825486 0.665351 0.032322
C15   C     C_R   0.760871 0.964260 0.683822 0.279523
C16   C     C_R   0.780595 0.975843 0.764006 0.224779
C17   C     C_R   0.695748 0.850532 0.823951 -0.014169
C18   C     C_R   0.285854 0.997468 0.748179 -0.135948
C19   C     C_R   0.249523 0.975073 0.672074 -0.115382
C20   C     C_R   0.183203 0.832844 0.655183 0.023956
C21   C     C_R   0.170511 0.716501 0.712465 -0.134080
C22   C     C_R   0.209929 0.739665 0.788403 -0.120543
C23   C     C_R   0.640593 0.858411 0.125323 0.547933
C24   C     C_R   0.260109 0.878925 0.807567 0.024093
C25   C     C_R   0.686556 0.809860 0.357248 0.551789
C26   C     C_R   0.689401 0.396145 0.394620 0.547095
C27   C     C_R   0.104057 0.810240 0.359260 0.541213
C28   C     C_R   0.677705 0.800843 0.585437 0.584644
C29   C     C_R   0.678812 0.382568 0.624473 0.557868
C30   C     C_R   0.103534 0.804598 0.584876 0.542780
C31   C     C_R   0.288266 0.902840 0.888595 0.561244
C32   C     C_R   0.637416 0.284755 0.861008 0.542151
C33   C     C_R   0.648445 0.866358 0.899767 0.539773
C34   C     C_R   0.524047 0.292255 0.207846 -0.158521
C35   C     C_R   0.534918 0.306604 0.286808 -0.152564
C36   C     C_R   0.672193 0.372266 0.314094 -0.013468
Cr1   Cr    Cr6+3 0.402240 0.783890 0.019450 1.051263
Cr2   Cr    Cr6+3 0.382360 0.097900 0.991800 1.017675
Cr3   Cr    Cr6+3 0.715380 0.118170 0.988700 1.052764
Cr4   Cr    Cr6+3 0.936650 0.882420 0.465510 1.066920
Cr5   Cr    Cr6+3 0.605770 0.565620 0.493360 1.029547
Cr6   Cr    Cr6+3 0.921340 0.550490 0.496380 1.048010
H1    H     H_    0.416245 0.229689 0.189258 0.157554
H2    H     H_    0.263805 0.067610 0.628057 0.145675
H3    H     H_    0.120930 0.606360 0.700475 0.146926
H4    H     H_    0.193395 0.646911 0.832929 0.147851
H5    H     H_    0.437083 0.262127 0.326967 0.142881
H6    H     H_    0.905705 0.499016 0.280710 0.161884
H7    H     H_    0.556084 0.614651 0.848971 0.153326
H8    H     H_    0.538902 0.591634 0.712105 0.155957
H9    H     H_    0.329345 0.106325 0.761365 0.128086
O1    O     O_R   0.521780 0.757110 0.108900 -0.506175
O2    O     O_R   0.513330 0.228330 0.898660 -0.529822
O3    O     O_R   0.739230 0.266130 0.888050 -0.479985
O4    O     O_R   0.712580 0.991850 0.918770 -0.485463
O5    O     O_3   0.499990 0.999980 0.999980 -0.284655
O6    O     O_R   0.083770 0.911170 0.376030 -0.510062
O7    O     O_R   0.808770 0.880340 0.383890 -0.492700
O8    O     O_R   0.584340 0.689460 0.394160 -0.506555
O9    O     O_R   0.614320 0.443940 0.423590 -0.498184
O10   O     O_R   0.805020 0.410040 0.421340 -0.510125
O11   O     O_R   0.049240 0.685450 0.403290 -0.503669
O12   O     O_R   0.275160 0.783810 0.101120 -0.464492
O13   O     O_R   0.077520 0.903010 0.551800 -0.512566
O14   O     O_R   0.802980 0.872780 0.546830 -0.445715
O15   O     O_R   0.578090 0.681300 0.569920 -0.534642
O16   O     O_R   0.608530 0.436370 0.586530 -0.511663
O17   O     O_R   0.798770 0.401880 0.597100 -0.490210
O18   O     O_R   0.043450 0.677890 0.566230 -0.504415
O19   O     O_3   0.821250 0.666180 0.485090 -0.271405
O20   O     O_R   0.237900 0.972600 0.090980 -0.515657
O21   O     O_R   0.511190 0.220540 0.061620 -0.514441
O22   O     O_R   0.736920 0.257720 0.063840 -0.488069
O23   O     O_R   0.710450 0.984050 0.081720 -0.493093
O24   O     O_R   0.524090 0.765520 0.933110 -0.529396
O25   O     O_R   0.277300 0.791600 0.938160 -0.499601
O26   O     O_R   0.240210 0.981010 0.915190 -0.508845
O27   O     O_3   0.916882 0.499367 0.131217 -0.685534
H10   H     H_    0.893163 0.515536 0.075790 0.334739
O28   O     O_3   0.830617 0.084224 0.622360 -0.675714
H11   H     H_    0.886543 0.174622 0.644139 0.374461
O29   O     O_3   0.878884 0.109585 0.781901 -0.698121
H12   H     H_    0.924320 0.090800 0.829688 0.338770

loop_
_geom_bond_atom_site_label_1
_geom_bond_atom_site_label_2
_ccdc_geom_bond_type
C33   O4    A    
C30   O13   A    
C19   C20   A    
C35   H5    S    
C31   O25   A    
C7    C8    T    
Cr5   O16   S    
Cr2   O21   S    
C20   C30   S    
C1    O20   A    
Cr4   O19   S    
C18   C24   A    
C26   O10   A    
C34   C35   A    
C5    C6    T    
Cr3   O3    S    
C15   C16   A    
Cr6   O19   S    
C18   C19   A    
Cr3   O23   S    
C9    C32   S    
C29   O16   A    
Cr1   O5    S    
C33   O24   A    
Cr3   O4    S    
Cr3   O5    S    
C16   C17   A    
C12   O22   A    
C4    C12   S    
C9    C10   T    
Cr6   O11   S    
Cr1   O24   S    
C13   C14   A    
Cr6   O17   S    
C17   C33   S    
C1    O12   A    
C32   O3    A    
Cr1   O12   S    
C18   H9    S    
C31   O26   A    
C21   H3    S    
C4    C34   A    
Cr4   O7    S    
Cr5   O8    S    
C27   O6    A    
Cr1   O1    S    
O27   H10   S    
C2    H6    S    
Cr6   O18   S    
C35   C36   A    
C28   O15   A    
C11   H7    S    
C27   O11   A    
C29   O17   A    
C15   O28   S    
C5    C23   S    
C16   O29   S    
Cr6   O10   S    
C26   C36   S    
C22   H4    S    
Cr1   O25   S    
Cr4   O14   S    
C22   C24   A    
C25   O7    A    
C23   O23   A    
C3    C4    A    
C32   O2    A    
C30   O18   A    
C19   H2    S    
C2    C36   A    
Cr2   O20   S    
C11   C17   A    
Cr4   O6    S    
C1    C7    S    
C34   H1    S    
Cr5   O9    S    
O28   H11   S    
Cr5   O15   S    
Cr2   O26   S    
Cr4   O13   S    
C2    C3    A    
C24   C31   S    
C11   C13   A    
C10   C29   S    
C23   O1    A    
Cr2   O2    S    
C28   O14   A    
Cr3   O22   S    
C12   O21   A    
C13   H8    S    
C6    C25   S    
Cr2   O5    S    
C20   C21   A    
O29   H12   S    
C8    C27   S    
C14   C15   A    
C25   O8    A    
C14   C28   S    
C21   C22   A    
C3    O27   S    
C26   O9    A    
Cr5   O19   S    
