data_mof_unit_pretest_442.cif
_audit_creation_date              2012-12-10T16:48:00-0500
_audit_creation_method            fapswitch 2.2
_symmetry_space_group_name_H-M    P1
_symmetry_Int_Tables_number       1
_space_group_crystal_system       triclinic
_cell_length_a                    7.967959
_cell_length_b                    8.619938
_cell_length_c                    10.602344
_cell_angle_alpha                 94.307306
_cell_angle_beta                  80.492542
_cell_angle_gamma                 93.163596
_cell_volume                      715.495147375

loop_
_atom_site_label
_atom_site_type_symbol
_atom_type_description
_atom_site_fract_x
_atom_site_fract_y
_atom_site_fract_z
_atom_type_partial_charge
C1    C     C_R   0.544215 0.793201 0.494530 0.949824
C2    C     C_2   0.562556 0.950297 0.463929 -0.024807
C3    C     C_3   0.638585 0.230930 0.096790 -0.898453
C4    C     C_3   0.275841 0.440876 0.943131 -0.378528
C5    C     C_3   0.160050 0.308838 0.897308 -0.879275
C6    C     C_3   0.700787 0.987391 0.349537 -0.433204
C7    C     C_3   0.685785 0.881140 0.229502 -0.918961
C8    C     C_3   0.325110 0.014542 0.651354 -0.922700
C9    C     C_3   0.016882 0.391805 0.339560 -0.100540
C10   C     C_3   0.090860 0.231699 0.337632 -0.836813
C11   C     C_3   0.979735 0.668349 0.621307 -0.152964
C12   C     C_2   0.442760 0.047686 0.526985 -0.021829
C13   C     C_3   0.008450 0.650471 0.757554 -0.868606
C14   C     C_R   0.490296 0.486233 0.737546 0.882392
C15   C     C_R   0.457109 0.205944 0.500420 0.908856
C16   C     C_R   0.506875 0.499656 0.262028 0.923682
C17   C     C_2   0.585435 0.378076 0.050141 0.226143
C18   C     C_2   0.529169 0.501744 0.126748 -0.365739
C19   C     C_2   0.591323 0.388219 0.914417 -0.211663
C20   C     C_2   0.459165 0.439000 0.868093 -0.020336
H1    H     H_    0.491455 0.605519 0.088143 0.114720
H2    H     H_    0.221569 0.554793 0.935099 0.198994
H3    H     H_    0.727348 0.763362 0.240687 0.284895
H4    H     H_    0.552779 0.874613 0.209884 0.255412
H5    H     H_    0.771048 0.927323 0.145700 0.252830
H6    H     H_    0.700219 0.106197 0.318884 0.241816
H7    H     H_    0.827300 0.973622 0.377231 0.222513
H8    H     H_    0.349150 0.106978 0.725150 0.236335
H9    H     H_    0.190213 0.015897 0.637584 0.249606
H10   H     H_    0.348121 0.905754 0.693786 0.240018
H11   H     H_    0.054208 0.179830 0.431569 0.261857
H12   H     H_    0.712856 0.367303 0.853666 0.160993
H13   H     H_    0.042288 0.151314 0.263601 0.202984
H14   H     H_    0.230762 0.238794 0.308559 0.259054
H15   H     H_    0.907063 0.370163 0.289158 0.174331
H16   H     H_    0.093992 0.477036 0.279491 0.162810
H17   H     H_    0.987064 0.527239 0.781358 0.268365
H18   H     H_    0.138039 0.694825 0.769793 0.266358
H19   H     H_    0.917497 0.721499 0.825972 0.215765
H20   H     H_    0.040724 0.779887 0.588013 0.160363
H21   H     H_    0.844747 0.678268 0.626332 0.232781
H22   H     H_    0.665399 0.140753 0.016434 0.237118
H23   H     H_    0.756526 0.254714 0.138495 0.233570
H24   H     H_    0.534567 0.184121 0.168748 0.230284
H25   H     H_    0.158309 0.307892 0.792992 0.287505
H26   H     H_    0.202311 0.195433 0.920913 0.258534
H27   H     H_    0.027735 0.323336 0.948124 0.242666
H28   H     H_    0.266052 0.427479 0.046770 0.221019
N1    N     N_2   0.950320 0.457950 0.466680 -0.040319
N2    N     N_2   0.049680 0.542050 0.533320 -0.003260
O1    O     O_R   0.389250 0.738570 0.508180 -0.607859
O2    O     O_R   0.678390 0.711630 0.486820 -0.663309
O3    O     O_R   0.355470 0.513470 0.691600 -0.607441
O4    O     O_R   0.644610 0.486520 0.670240 -0.641940
O5    O     O_R   0.321610 0.288370 0.513180 -0.606005
O6    O     O_R   0.610750 0.261430 0.491820 -0.632336
O7    O     O_R   0.355390 0.513480 0.329760 -0.628495
O8    O     O_R   0.644530 0.486530 0.308400 -0.636211
Zn1   Zn    Zn3+2 0.306940 0.517990 0.514260 0.934872
Zn2   Zn    Zn3+2 0.693060 0.482010 0.485740 0.902326

loop_
_geom_bond_atom_site_label_1
_geom_bond_atom_site_label_2
_ccdc_geom_bond_type
C9    H16   S    
C3    H22   S    
C3    C17   S    
C6    C7    S    
O5    Zn1   S    
C18   H1    S    
C4    H2    S    
C9    C10   S    
C13   H17   S    
C6    H7    S    
C7    H5    S    
C12   C15   S    
N2    Zn1   S    
C8    C12   S    
C2    C12   D    
C15   O6    A    
N1    N2    D    
C17   C18   D    
O3    Zn1   S    
C8    H10   S    
C10   H14   S    
C11   N2    S    
C16   O8    A    
O6    Zn2   S    
C11   C13   S    
C3    H23   S    
C13   H18   S    
C2    C6    S    
N1    Zn2   S    
C7    H3    S    
C19   H12   S    
C14   O4    A    
C11   H21   S    
C10   H13   S    
C16   O7    A    
C11   H20   S    
C8    H8    S    
C1    O2    A    
C5    H27   S    
C3    H24   S    
C13   H19   S    
C9    N1    S    
O7    Zn1   S    
C8    H9    S    
O8    Zn2   S    
C7    H4    S    
C4    C20   S    
C14   C20   S    
C14   O3    A    
O1    Zn1   S    
C16   C18   S    
C1    C2    S    
C4    H28   S    
C9    H15   S    
C6    H6    S    
O4    Zn2   S    
C1    O1    A    
O2    Zn2   S    
C17   C19   S    
C5    H25   S    
C10   H11   S    
C19   C20   D    
C4    C5    S    
C5    H26   S    
C15   O5    A    
