data_mof_unit_pretest_932.cif
_audit_creation_date              2012-12-10T19:33:09-0500
_audit_creation_method            fapswitch 2.2
_symmetry_space_group_name_H-M    P1
_symmetry_Int_Tables_number       1
_space_group_crystal_system       triclinic
_cell_length_a                    8.729158
_cell_length_b                    15.827074
_cell_length_c                    17.078675
_cell_angle_alpha                 94.164869
_cell_angle_beta                  91.068751
_cell_angle_gamma                 84.386126
_cell_volume                      2341.86235551

loop_
_atom_site_label
_atom_site_type_symbol
_atom_type_description
_atom_site_fract_x
_atom_site_fract_y
_atom_site_fract_z
_atom_type_partial_charge
C1    C     C_R   0.495794 0.491735 0.348877 0.831771
C2    C     C_R   0.504216 0.508262 0.651130 0.831592
C3    C     C_R   0.419445 0.744553 0.454857 0.000771
C4    C     C_R   0.580564 0.255455 0.545144 0.000797
C5    C     C_R   0.402093 0.831632 0.443833 0.123024
C6    C     C_R   0.597878 0.168384 0.556198 0.123017
C7    C     C_R   0.486138 0.887067 0.491040 0.356653
C8    C     C_R   0.513797 0.112944 0.509018 0.356648
C9    C     C_R   0.588922 0.851460 0.548189 -0.335877
C10   C     C_R   0.411006 0.148542 0.451866 -0.335856
C11   C     C_R   0.603719 0.762459 0.556297 0.018587
C12   C     C_R   0.396235 0.237538 0.443732 0.018513
C13   C     C_R   0.205512 0.521897 0.500967 0.869716
C14   C     C_R   0.794488 0.478103 0.499031 0.869745
C15   C     C_2   0.040486 0.533863 0.501652 -0.371299
C16   C     C_2   0.959514 0.466137 0.498341 -0.371292
C17   C     C_R   0.482193 0.493993 0.263524 -0.084082
C18   C     C_R   0.517900 0.505976 0.736491 -0.084304
C19   C     C_R   0.405431 0.567217 0.233767 -0.356252
C20   C     C_R   0.593894 0.432518 0.766208 -0.356112
C21   C     C_R   0.395263 0.576263 0.153274 0.253608
C22   C     C_R   0.604155 0.423448 0.846693 0.253502
C23   C     C_R   0.461164 0.510844 0.101227 0.324856
C24   C     C_R   0.539183 0.489090 0.898783 0.325056
C25   C     C_R   0.533536 0.435642 0.130709 -0.297586
C26   C     C_R   0.467628 0.564509 0.869356 -0.297418
C27   C     C_R   0.546202 0.427192 0.211658 0.212409
C28   C     C_R   0.454817 0.572990 0.788412 0.212473
Cu1   Cu    Cu3+1 0.492520 0.415770 0.496210 0.942198
Cu2   Cu    Cu3+1 0.507480 0.584230 0.503790 0.942144
H1    H     H_    0.582472 0.383935 0.091025 0.173356
H2    H     H_    0.419447 0.616371 0.909088 0.173037
N1    N     N_2   0.450386 0.522390 0.019796 -0.230709
N2    N     N_2   0.550027 0.477539 0.980206 -0.230853
N3    N     N_R   0.518730 0.710760 0.509500 -0.178230
N4    N     N_R   0.481270 0.289240 0.490500 -0.178216
N5    N     N_2   0.459993 0.976432 0.479230 -0.218222
N6    N     N_2   0.539929 0.023582 0.520847 -0.218153
O1    O     O_R   0.493000 0.421040 0.382520 -0.546532
O2    O     O_R   0.507000 0.578960 0.617480 -0.546453
O3    O     O_R   0.505640 0.563310 0.388930 -0.607090
O4    O     O_R   0.494360 0.436690 0.611070 -0.607113
O5    O     O_R   0.269980 0.445280 0.497530 -0.573864
O6    O     O_R   0.730020 0.554720 0.502470 -0.573885
O7    O     O_R   0.282610 0.587550 0.503940 -0.599430
O8    O     O_R   0.717390 0.412450 0.496060 -0.599300
H3    H     H_    0.985475 0.598667 0.504939 0.176147
H4    H     H_    0.014524 0.401332 0.495054 0.176164
H5    H     H_    0.644140 0.381063 0.726537 0.160616
H6    H     H_    0.354489 0.618495 0.273419 0.160401
N7    N     N_2   0.679357 0.347591 0.875187 -0.416782
H7    H     H_    0.765786 0.318650 0.839226 0.246795
C29   C     C_3   0.575966 0.287660 0.897610 -0.685433
H8    H     H_    0.508093 0.265311 0.845800 0.216474
H9    H     H_    0.496167 0.317186 0.943932 0.245724
H10   H     H_    0.643709 0.231882 0.921262 0.221028
N8    N     N_2   0.319117 0.651849 0.124721 -0.416641
H11   H     H_    0.232261 0.680426 0.160606 0.246832
C30   C     C_3   0.421634 0.712275 0.102396 -0.685394
H12   H     H_    0.488978 0.734948 0.154275 0.216394
H13   H     H_    0.353205 0.767785 0.078667 0.221073
H14   H     H_    0.501934 0.683070 0.056165 0.245492
N9    N     N_2   0.625871 0.352529 0.240150 -0.408714
H15   H     H_    0.617107 0.298433 0.203462 0.245745
C31   C     C_3   0.783490 0.361857 0.264293 -0.645955
H16   H     H_    0.834099 0.302511 0.289484 0.222141
H17   H     H_    0.789012 0.415169 0.309956 0.223430
H18   H     H_    0.852806 0.373806 0.212996 0.215866
N10   N     N_2   0.375989 0.647924 0.759996 -0.408685
H19   H     H_    0.385562 0.701944 0.796674 0.245648
C32   C     C_3   0.218078 0.639250 0.736002 -0.645710
H20   H     H_    0.168123 0.698778 0.710899 0.222108
H21   H     H_    0.148697 0.627548 0.787356 0.215808
H22   H     H_    0.211753 0.586034 0.690311 0.223581
H23   H     H_    0.647752 0.296943 0.581670 0.141491
H24   H     H_    0.352283 0.703067 0.418313 0.141524
N11   N     N_2   0.702818 0.136635 0.614348 -0.420260
H25   H     H_    0.795963 0.171602 0.624167 0.241738
C33   C     C_3   0.630895 0.121076 0.686868 -0.684741
H26   H     H_    0.575645 0.181707 0.715006 0.213050
H27   H     H_    0.719467 0.093548 0.727737 0.225127
H28   H     H_    0.543079 0.075202 0.675885 0.248056
N12   N     N_2   0.297141 0.863391 0.385692 -0.420254
H29   H     H_    0.204086 0.828369 0.375803 0.241730
C34   C     C_3   0.369072 0.879108 0.313219 -0.684530
H30   H     H_    0.424564 0.818553 0.285056 0.212980
H31   H     H_    0.456695 0.925081 0.324274 0.248059
H32   H     H_    0.280463 0.906585 0.272342 0.225076
H33   H     H_    0.656409 0.891544 0.586272 0.178495
H34   H     H_    0.343488 0.108455 0.413804 0.178484
H35   H     H_    0.682009 0.735418 0.599730 0.132280
H36   H     H_    0.317924 0.264573 0.400305 0.132199

loop_
_geom_bond_atom_site_label_1
_geom_bond_atom_site_label_2
_ccdc_geom_bond_type
C25   H1    S    
C4    N4    A    
C26   H2    S    
Cu1   O4    S    
C2    C18   S    
Cu2   O7    S    
C28   N10   S    
C15   H3    S    
C16   H4    S    
N9    C31   S    
C14   O8    A    
C29   H8    S    
Cu1   N4    S    
C20   H5    S    
Cu2   N3    S    
C14   O6    A    
C19   C21   A    
N5    N6    D    
C24   C26   A    
C5    N12   S    
N8    C30   S    
C15   C16   D    
N10   C32   S    
C4    H23   S    
C31   H17   S    
Cu2   O3    S    
C12   N4    A    
C18   C20   A    
N11   H25   S    
C29   H10   S    
C29   H9    S    
C30   H12   S    
Cu1   O5    S    
Cu2   O6    S    
C8    N6    S    
N11   C33   S    
C30   H13   S    
C34   H31   S    
N7    H7    S    
C17   C27   A    
C18   C28   A    
C4    C6    A    
C9    H33   S    
C33   H27   S    
C6    N11   S    
C6    C8    A    
C23   N1    S    
C34   H30   S    
C24   N2    S    
N9    H15   S    
N7    C29   S    
C21   N8    S    
Cu1   Cu2   S    
C11   H35   S    
C33   H28   S    
N12   H29   S    
C3    N3    A    
C31   H18   S    
Cu1   O1    S    
N1    N2    D    
C7    N5    S    
Cu2   O2    S    
C3    H24   S    
C9    C11   A    
C10   C12   A    
C1    O3    A    
N12   C34   S    
C20   C22   A    
C13   C15   S    
C14   C16   S    
C13   O5    A    
C5    C7    A    
C34   H32   S    
C7    C9    A    
C30   H14   S    
C1    C17   S    
C12   H36   S    
C3    C5    A    
C32   H22   S    
C25   C27   A    
C26   C28   A    
Cu1   O8    S    
C21   C23   A    
C32   H20   S    
C13   O7    A    
C19   H6    S    
N8    H11   S    
C2    O4    A    
C11   N3    A    
C17   C19   A    
C22   C24   A    
C23   C25   A    
N10   H19   S    
C1    O1    A    
C33   H26   S    
C2    O2    A    
C10   H34   S    
C8    C10   A    
C31   H16   S    
C32   H21   S    
C27   N9    S    
C22   N7    S    
