data_mof_unit_pretest_836.cif
_audit_creation_date              2012-12-11T14:15:21-0500
_audit_creation_method            fapswitch 2.2
_symmetry_space_group_name_H-M    P1
_symmetry_Int_Tables_number       1
_space_group_crystal_system       triclinic
_cell_length_a                    11.176275
_cell_length_b                    12.708604
_cell_length_c                    23.572438
_cell_angle_alpha                 90.600331
_cell_angle_beta                  96.603708
_cell_angle_gamma                 68.586745
_cell_volume                      3094.51461707

loop_
_atom_site_label
_atom_site_type_symbol
_atom_type_description
_atom_site_fract_x
_atom_site_fract_y
_atom_site_fract_z
_atom_type_partial_charge
C1    C     C_R   0.150316 0.617003 0.429188 0.555059
C2    C     C_R   0.645962 0.562341 0.314905 -0.143407
C3    C     C_R   0.659124 0.748763 0.322538 0.248045
C4    C     C_R   0.654431 0.755391 0.262386 -0.008710
C5    C     C_R   0.648141 0.662621 0.229693 -0.006717
C6    C     C_R   0.653121 0.665941 0.171233 -0.062345
C7    C     C_R   0.670481 0.850321 0.175352 0.190995
C8    C     C_R   0.667524 0.847468 0.234458 -0.014812
C9    C     C_1   0.242267 0.155642 0.124430 0.066375
C10   C     C_2   0.219417 0.208771 0.232492 0.225754
C11   C     C_2   0.147793 0.169123 0.263105 0.213332
C12   C     C_R   0.744543 0.606279 0.405306 0.601430
C13   C     C_1   0.131797 0.198327 0.321733 0.060227
C14   C     C_1   0.229063 0.183063 0.173038 0.051757
C15   C     C_1   0.116941 0.230147 0.369617 0.065242
C16   C     C_1   0.173013 0.749948 0.124858 0.068114
C17   C     C_2   0.157798 0.677361 0.228186 0.289504
C18   C     C_2   0.242517 0.679876 0.273504 -0.023236
C19   C     C_1   0.224823 0.655011 0.331304 0.076198
C20   C     C_1   0.166803 0.716644 0.171925 0.039102
C21   C     C_1   0.198409 0.636458 0.377632 0.086144
C22   C     C_1   0.627263 0.753947 0.864848 0.084740
C23   C     C_R   0.101646 0.281140 0.424009 0.561993
C24   C     C_2   0.699865 0.698368 0.762148 -0.091291
C25   C     C_2   0.610683 0.704420 0.717822 -0.116687
C26   C     C_1   0.649791 0.670191 0.662160 -0.040473
C27   C     C_1   0.662692 0.729643 0.818367 0.040199
C28   C     C_1   0.689475 0.640162 0.616914 0.004924
C29   C     C_R   0.208270 0.172671 0.851592 -0.044446
C30   C     C_R   0.111935 0.218657 0.638910 -0.009713
C31   C     C_R   0.008648 0.174082 0.715080 -0.118463
C32   C     C_R   0.007361 0.197874 0.657336 -0.121842
C33   C     C_R   0.220468 0.207302 0.677365 -0.080438
C34   C     C_R   0.147683 0.615954 0.591227 0.533122
C35   C     C_R   0.216937 0.197410 0.735460 0.024725
C36   C     C_R   0.110246 0.178693 0.754676 -0.000427
C37   C     C_R   0.108853 0.162570 0.812975 -0.139533
C38   C     C_R   0.301192 0.209652 0.832332 -0.084658
C39   C     C_R   0.313858 0.212016 0.774866 0.260561
C40   C     C_R   0.125029 0.746885 0.852815 -0.001655
C41   C     C_R   0.178241 0.633734 0.650918 0.014710
C42   C     C_R   0.315840 0.586113 0.740634 -0.086278
C43   C     C_R   0.299560 0.576551 0.681478 -0.093305
C44   C     C_R   0.074408 0.700659 0.679145 -0.114113
C45   C     C_R   0.749701 0.602364 0.565983 0.550115
C46   C     C_R   0.089644 0.710767 0.737206 -0.006704
C47   C     C_R   0.210490 0.652651 0.768558 0.024075
C48   C     C_R   0.225409 0.666963 0.826721 -0.163088
C49   C     C_R   0.001096 0.802149 0.821177 0.216079
C50   C     C_R   0.985184 0.780792 0.763584 -0.140587
C51   C     C_R   0.266183 0.109761 0.069376 0.545039
C52   C     C_R   0.597578 0.776347 0.082253 0.558790
C53   C     C_R   0.190922 0.788439 0.070309 0.563037
C54   C     C_R   0.241984 0.114578 0.907351 0.535896
C55   C     C_R   0.573380 0.776220 0.918068 0.557801
C56   C     C_R   0.100321 0.277056 0.584511 0.539379
C57   C     C_R   0.163264 0.786496 0.907498 0.559394
C58   C     C_R   0.652187 0.762182 0.142842 -0.014943
C59   C     C_R   0.673715 0.644517 0.348208 -0.028287
C60   C     C_R   0.634753 0.569099 0.256041 0.230147
Cr1   Cr    Cr6+3 0.189770 0.415650 0.511620 1.088102
Cr2   Cr    Cr6+3 0.930400 0.667320 0.496770 1.115064
Cr3   Cr    Cr6+3 0.879870 0.417010 0.491650 1.061674
Cr4   Cr    Cr6+3 0.149500 0.973980 0.985330 1.154012
Cr5   Cr    Cr6+3 0.457000 0.976510 0.994660 1.172350
Cr6   Cr    Cr6+3 0.411170 0.724270 0.995270 1.071485
H1    H     H_    0.801993 0.667325 0.756676 0.137342
H2    H     H_    0.035448 0.136330 0.827802 0.175311
H3    H     H_    0.379992 0.524160 0.659843 0.159427
H4    H     H_    0.978944 0.743571 0.656125 0.141197
O1    O     O_R   0.196340 0.303200 0.448500 -0.470451
O2    O     O_R   0.811960 0.658090 0.547150 -0.493959
O3    O     O_R   0.757930 0.506140 0.547110 -0.505128
O4    O     O_R   0.988670 0.321620 0.556040 -0.502171
O5    O     O_3   0.000020 0.499990 0.500010 -0.277442
O6    O     O_R   0.113660 0.883270 0.047820 -0.446930
O7    O     O_R   0.186930 0.068530 0.043990 -0.482799
O8    O     O_R   0.377770 0.089040 0.054220 -0.459721
O9    O     O_R   0.562800 0.872960 0.056970 -0.431955
O10   O     O_R   0.555390 0.700940 0.062700 -0.512191
O11   O     O_R   0.295020 0.731920 0.049950 -0.495930
O12   O     O_R   0.199310 0.519670 0.454880 -0.486487
O13   O     O_R   0.094290 0.884230 0.921550 -0.422003
O14   O     O_R   0.168980 0.069410 0.926940 -0.491359
O15   O     O_R   0.358400 0.089990 0.927950 -0.504025
O16   O     O_R   0.544850 0.873850 0.939920 -0.448843
O17   O     O_R   0.536020 0.701900 0.936430 -0.522744
O18   O     O_R   0.277070 0.732810 0.932890 -0.524655
O19   O     O_3   0.339220 0.891590 0.991750 -0.304135
O20   O     O_R   0.045660 0.691380 0.441680 -0.465513
O21   O     O_R   0.811930 0.659460 0.430950 -0.417116
O22   O     O_R   0.757900 0.507620 0.421760 -0.527719
O23   O     O_R   0.988630 0.322990 0.439840 -0.497087
O24   O     O_R   0.196380 0.301720 0.573850 -0.509230
O25   O     O_R   0.199350 0.518300 0.571080 -0.492995
O26   O     O_R   0.045700 0.689900 0.567030 -0.525691
H5    H     H_    0.649779 0.595284 0.146320 0.228669
S1    S     S_3+6 0.025339 0.636657 0.235901 0.070431
O27   O     O_2   0.071522 0.522669 0.265711 -0.190996
O28   O     O_2   0.936769 0.721416 0.271754 -0.275929
O29   O     O_3   0.946193 0.630298 0.171646 -0.496117
H6    H     H_    0.925200 0.705055 0.152698 0.350936
H7    H     H_    0.508491 0.734165 0.723226 0.136247
H8    H     H_    0.375107 0.222049 0.862555 0.205343
H9    H     H_    0.927151 0.158963 0.729134 0.137980
S2    S     S_3+6 0.457110 0.223920 0.754964 -0.018849
O30   O     O_2   0.523016 0.124644 0.719860 -0.304850
O31   O     O_2   0.422479 0.330688 0.719675 -0.327250
O32   O     O_3   0.559261 0.226012 0.812886 -0.496544
H10   H     H_    0.639003 0.224027 0.797627 0.377750
H11   H     H_    0.922788 0.205204 0.627789 0.145187
H12   H     H_    0.301741 0.219828 0.662116 0.219790
H13   H     H_    0.320084 0.623857 0.850294 0.150043
S3    S     S_3+6 0.711775 0.958386 0.145999 0.065053
O33   O     O_2   0.778041 0.919593 0.093421 -0.226637
O34   O     O_2   0.591667 0.061193 0.130894 -0.263462
O35   O     O_3   0.812909 0.992818 0.194409 -0.415299
H14   H     H_    0.756495 0.056242 0.215288 0.365424
S4    S     S_3+6 0.866036 0.903909 0.849226 0.029470
O36   O     O_2   0.850139 0.861874 0.906185 -0.229301
O37   O     O_2   0.886954 0.013844 0.856718 -0.279707
O38   O     O_3   0.728992 0.929248 0.804823 -0.499259
H15   H     H_    0.731483 0.982252 0.774922 0.374320
H16   H     H_    0.410046 0.542323 0.764371 0.150646
H17   H     H_    0.892875 0.823642 0.738229 0.130896
S5    S     S_3+6 0.615698 0.453614 0.217994 0.022529
O39   O     O_2   0.498555 0.496613 0.174141 -0.277155
O40   O     O_2   0.733877 0.395904 0.188427 -0.238320
O41   O     O_3   0.597628 0.359502 0.262624 -0.472515
H18   H     H_    0.625012 0.287108 0.242610 0.390446
H19   H     H_    0.683002 0.914949 0.258599 0.215528
H20   H     H_    0.645494 0.486266 0.334867 0.211337
S6    S     S_3+6 0.639179 0.869444 0.364985 0.036006
O42   O     O_2   0.764947 0.888564 0.374062 -0.239060
O43   O     O_2   0.535999 0.971790 0.334952 -0.255016
O44   O     O_3   0.593949 0.850691 0.428611 -0.525388
H21   H     H_    0.594496 0.917414 0.450581 0.368112
S7    S     S_3+6 0.063705 0.084406 0.232454 0.051018
O45   O     O_2   0.964613 0.149683 0.184367 -0.206594
O46   O     O_2   0.157786 0.980248 0.209233 -0.273583
O47   O     O_3   0.990030 0.045407 0.282194 -0.464058
H22   H     H_    0.917481 0.115257 0.289760 0.349244
S8    S     S_3+6 0.320535 0.279827 0.262959 0.079099
O48   O     O_2   0.278000 0.337004 0.317177 -0.220546
O49   O     O_2   0.455944 0.194808 0.275884 -0.244964
O50   O     O_3   0.320495 0.377656 0.215426 -0.435016
H23   H     H_    0.374308 0.334325 0.186310 0.366583
H24   H     H_    0.322076 0.706944 0.267639 0.104799

loop_
_geom_bond_atom_site_label_1
_geom_bond_atom_site_label_2
_ccdc_geom_bond_type
C39   S2    S    
C1    C21   S    
O29   H6    S    
Cr5   O9    S    
C32   H11   S    
Cr2   O26   S    
S8    O50   S    
O35   H14   S    
C31   H9    S    
Cr4   O7    S    
C6    C58   A    
C12   O21   A    
C35   C36   A    
C9    C51   S    
C24   C27   S    
C4    C8    A    
C54   O14   A    
S3    O33   D    
C42   H16   S    
C7    C8    A    
C49   S4    S    
Cr1   O5    S    
Cr5   O19   S    
C1    O20   A    
S2    O31   D    
C7    S3    S    
C45   O3    A    
C36   C37   A    
C19   C21   T    
C11   S7    S    
C34   O26   A    
O50   H23   S    
C18   H24   S    
Cr1   O12   S    
Cr6   O18   S    
C5    C6    A    
C2    C60   A    
S2    O30   D    
C40   C49   A    
C37   H2    S    
C17   C20   S    
C53   O11   A    
C18   C19   S    
C40   C48   A    
C16   C53   S    
Cr4   O14   S    
C38   H8    S    
C24   H1    S    
C12   C59   S    
C47   C48   A    
C29   C38   A    
S6    O44   S    
C2    H20   S    
C57   O13   A    
C44   H4    S    
Cr5   O8    S    
C52   O9    A    
C17   S1    S    
C7    C58   A    
C5    C60   A    
C42   C47   A    
Cr1   O1    S    
C15   C23   S    
C43   H3    S    
C45   O2    A    
C41   C43   A    
C56   O24   A    
C34   C41   S    
Cr4   O19   S    
C44   C46   A    
Cr6   O19   S    
S4    O37   D    
C28   C45   S    
C56   O4    A    
C6    H5    S    
C23   O1    A    
Cr5   O16   S    
C34   O25   A    
C10   C14   S    
Cr6   O17   S    
C33   H12   S    
Cr1   O24   S    
C25   H7    S    
Cr3   O3    S    
S5    O41   S    
C1    O12   A    
C30   C56   S    
C23   O23   A    
C3    S6    S    
Cr3   O22   S    
C35   C39   A    
C9    C14   T    
C51   O7    A    
Cr4   O13   S    
C31   C32   A    
C16   C20   T    
Cr2   O21   S    
C8    H19   S    
C17   C18   D    
Cr4   O6    S    
Cr2   O2    S    
C50   H17   S    
C24   C25   D    
C52   C58   S    
C49   C50   A    
S1    O28   D    
C22   C27   T    
C13   C15   T    
S6    O42   D    
C41   C44   A    
Cr2   O5    S    
C53   O6    A    
C42   C43   A    
C3    C4    A    
O41   H18   S    
S4    O38   S    
S8    O49   D    
C46   C50   A    
C46   C47   A    
S5    O40   D    
C40   C57   S    
C30   C33   A    
C2    C59   A    
C12   O22   A    
O44   H21   S    
S7    O47   S    
C54   O15   A    
S3    O34   D    
S4    O36   D    
Cr1   O25   S    
Cr5   O15   S    
C22   C55   S    
S7    O46   D    
Cr3   O4    S    
S1    O29   S    
Cr6   O10   S    
Cr3   O23   S    
C26   C28   T    
C57   O18   A    
C10   C11   D    
C55   O16   A    
C60   S5    S    
C25   C26   S    
C51   O8    A    
C52   O10   A    
O47   H22   S    
Cr6   O11   S    
C30   C32   A    
C11   C13   S    
C38   C39   A    
Cr3   O5    S    
S5    O39   D    
Cr2   O20   S    
C33   C35   A    
C10   S8    S    
C55   O17   A    
S3    O35   S    
S7    O45   D    
C4    C5    A    
S1    O27   D    
C29   C54   S    
C29   C37   A    
S6    O43   D    
C31   C36   A    
O38   H15   S    
O32   H10   S    
S8    O48   D    
C48   H13   S    
S2    O32   S    
C3    C59   A    
