data_mof_unit_pretest_336.cif
_audit_creation_date              2012-10-26T21:32:58-0400
_audit_creation_method            fapswitch 2.2
_symmetry_space_group_name_H-M    P1
_symmetry_Int_Tables_number       1
_space_group_crystal_system       triclinic
_cell_length_a                    28.274509
_cell_length_b                    18.649861
_cell_length_c                    17.055127
_cell_angle_alpha                 90.0
_cell_angle_beta                  60.577441
_cell_angle_gamma                 90.000011
_cell_volume                      7833.46641582

loop_
_atom_site_label
_atom_site_type_symbol
_atom_type_description
_atom_site_fract_x
_atom_site_fract_y
_atom_site_fract_z
_atom_type_partial_charge
C1    C     C_R   0.701900 0.268959 0.675794 0.882344
C2    C     C_R   0.941370 0.627713 0.532828 -0.287732
C3    C     C_R   0.074053 0.900584 0.933889 0.910452
C4    C     C_R   0.574056 0.599412 0.933889 0.911030
C5    C     C_R   0.425947 0.400584 0.066111 0.910452
C6    C     C_R   0.425944 0.599412 0.066111 0.911031
C7    C     C_R   0.574053 0.400584 0.933889 0.910452
C8    C     C_R   0.552374 0.999752 0.489617 0.019091
C9    C     C_R   0.447630 0.999751 0.510370 0.019090
C10   C     C_R   0.052372 0.499751 0.489623 0.019089
C11   C     C_R   0.947628 0.499752 0.510376 0.019089
C12   C     C_R   0.526945 0.065256 0.491890 0.048615
C13   C     C_R   0.941378 0.371625 0.531743 -0.223265
C14   C     C_R   0.473097 0.934119 0.507694 0.024943
C15   C     C_R   0.473059 0.065256 0.508097 0.048615
C16   C     C_R   0.526908 0.934119 0.492291 0.024944
C17   C     C_R   0.026943 0.565257 0.491896 0.048615
C18   C     C_R   0.973094 0.434119 0.507702 0.024943
C19   C     C_R   0.973057 0.565257 0.508102 0.048616
C20   C     C_R   0.026906 0.434119 0.492298 0.024944
C21   C     C_R   0.630047 0.934928 0.480336 0.035673
C22   C     C_R   0.370150 0.065025 0.519283 0.070179
C23   C     C_R   0.369955 0.934928 0.519657 0.035673
C24   C     C_R   0.058631 0.627713 0.467170 -0.287732
C25   C     C_R   0.629852 0.065026 0.480711 0.070178
C26   C     C_R   0.130046 0.434928 0.480339 0.035673
C27   C     C_R   0.870149 0.565026 0.519286 0.070179
C28   C     C_R   0.869954 0.434928 0.519661 0.035673
C29   C     C_R   0.129851 0.565026 0.480712 0.070179
C30   C     C_R   0.673291 0.935888 0.501351 -0.124881
C31   C     C_R   0.326716 0.064136 0.498731 -0.113824
C32   C     C_R   0.326710 0.935888 0.498646 -0.124880
C33   C     C_R   0.673285 0.064136 0.501267 -0.113824
C34   C     C_R   0.173290 0.435888 0.501351 -0.124880
C35   C     C_R   0.558624 0.871625 0.468251 -0.223268
C36   C     C_R   0.826715 0.564136 0.498732 -0.113824
C37   C     C_R   0.826710 0.435888 0.498648 -0.124880
C38   C     C_R   0.173285 0.564136 0.501267 -0.113824
C39   C     C_R   0.692717 0.000024 0.513926 -0.315479
C40   C     C_R   0.307283 0.000024 0.486074 -0.315480
C41   C     C_R   0.192717 0.500024 0.513925 -0.315480
C42   C     C_R   0.807283 0.500024 0.486074 -0.315480
C43   C     C_R   0.603643 0.999902 0.485090 0.005765
C44   C     C_R   0.396361 0.999902 0.514901 0.005764
C45   C     C_R   0.103641 0.499902 0.485094 0.005764
C46   C     C_R   0.441372 0.127712 0.532823 -0.287733
C47   C     C_R   0.896359 0.499902 0.514905 0.005764
C48   C     C_R   0.111938 0.373548 0.452604 0.133563
C49   C     C_R   0.888333 0.626236 0.546810 0.127490
C50   C     C_R   0.888062 0.373548 0.547396 0.133563
C51   C     C_R   0.111668 0.626236 0.453188 0.127491
C52   C     C_R   0.611941 0.873548 0.452600 0.133561
C53   C     C_R   0.388334 0.126236 0.546807 0.127491
C54   C     C_R   0.388064 0.873548 0.547390 0.133565
C55   C     C_R   0.611669 0.126236 0.453186 0.127490
C56   C     C_R   0.441381 0.871625 0.531733 -0.223267
C57   C     C_R   0.558632 0.127712 0.467167 -0.287732
C58   C     C_R   0.720705 0.266485 0.954015 0.117687
C59   C     C_R   0.279171 0.733308 0.046090 0.114827
C60   C     C_R   0.279295 0.266485 0.045985 0.117685
C61   C     C_R   0.298061 0.730963 0.324225 0.902718
C62   C     C_R   0.720829 0.733308 0.953909 0.114825
C63   C     C_R   0.220705 0.766485 0.954015 0.117687
C64   C     C_R   0.779171 0.233308 0.046090 0.114826
C65   C     C_R   0.779294 0.766485 0.045985 0.117685
C66   C     C_R   0.220829 0.233308 0.953909 0.114825
C67   C     C_R   0.744452 0.198585 0.945263 -0.178660
C68   C     C_R   0.255419 0.801204 0.054851 -0.182923
C69   C     C_R   0.255550 0.198583 0.054733 -0.178659
C70   C     C_R   0.744578 0.801206 0.945155 -0.182923
C71   C     C_R   0.244453 0.698585 0.945262 -0.178659
C72   C     C_R   0.298100 0.268958 0.324206 0.882343
C73   C     C_R   0.755420 0.301204 0.054850 -0.182924
C74   C     C_R   0.755550 0.698583 0.054733 -0.178659
C75   C     C_R   0.244578 0.301206 0.945154 -0.182923
C76   C     C_R   0.773132 0.182194 0.990722 -0.178299
C77   C     C_R   0.226743 0.817596 0.009388 -0.177831
C78   C     C_R   0.226870 0.182193 0.009273 -0.178299
C79   C     C_R   0.773253 0.817597 0.990617 -0.177830
C80   C     C_R   0.273133 0.682195 0.990722 -0.178299
C81   C     C_R   0.726744 0.317596 0.009387 -0.177830
C82   C     C_R   0.726870 0.682193 0.009273 -0.178300
C83   C     C_R   0.701939 0.730963 0.675775 0.902719
C84   C     C_R   0.273254 0.317597 0.990617 -0.177830
C85   C     C_R   0.643558 0.327706 0.946102 -0.204387
C86   C     C_R   0.356370 0.672175 0.053944 -0.201750
C87   C     C_R   0.356442 0.327706 0.053898 -0.204388
C88   C     C_R   0.643630 0.672174 0.946056 -0.201750
C89   C     C_R   0.143558 0.827706 0.946102 -0.204387
C90   C     C_R   0.856370 0.172175 0.053944 -0.201750
C91   C     C_R   0.856441 0.827706 0.053898 -0.204388
C92   C     C_R   0.143630 0.172174 0.946056 -0.201751
C93   C     C_R   0.616614 0.347861 0.898291 -0.065920
C94   C     C_R   0.201900 0.768959 0.675794 0.882346
C95   C     C_R   0.383354 0.652093 0.101721 -0.065633
C96   C     C_R   0.383386 0.347861 0.101709 -0.065920
C97   C     C_R   0.616646 0.652092 0.898279 -0.065633
C98   C     C_R   0.116613 0.847861 0.898291 -0.065920
C99   C     C_R   0.883354 0.152092 0.101721 -0.065634
C100  C     C_R   0.883386 0.847861 0.101709 -0.065920
C101  C     C_R   0.116646 0.152092 0.898279 -0.065633
C102  C     C_R   0.633367 0.322686 0.813147 -0.260899
C103  C     C_R   0.366606 0.677282 0.186855 -0.263691
C104  C     C_R   0.366633 0.322686 0.186853 -0.260899
C105  C     C_R   0.798061 0.230963 0.324225 0.902719
C106  C     C_R   0.633394 0.677283 0.813145 -0.263691
C107  C     C_R   0.133367 0.822686 0.813147 -0.260899
C108  C     C_R   0.866606 0.177282 0.186855 -0.263690
C109  C     C_R   0.866633 0.822686 0.186853 -0.260899
C110  C     C_R   0.133394 0.177283 0.813145 -0.263691
C111  C     C_R   0.679617 0.282077 0.770995 -0.051163
C112  C     C_R   0.320320 0.717817 0.229039 -0.049066
C113  C     C_R   0.320383 0.282076 0.229004 -0.051163
C114  C     C_R   0.679680 0.717817 0.770961 -0.049066
C115  C     C_R   0.179617 0.782077 0.770995 -0.051163
C116  C     C_R   0.798100 0.768958 0.324206 0.882342
C117  C     C_R   0.820319 0.217817 0.229039 -0.049066
C118  C     C_R   0.820383 0.782076 0.229004 -0.051163
C119  C     C_R   0.179680 0.217818 0.770961 -0.049067
C120  C     C_R   0.707704 0.261150 0.817154 -0.206471
C121  C     C_R   0.292186 0.738658 0.182928 -0.201385
C122  C     C_R   0.292296 0.261150 0.182846 -0.206471
C123  C     C_R   0.707814 0.738659 0.817072 -0.201384
C124  C     C_R   0.207704 0.761150 0.817154 -0.206472
C125  C     C_R   0.792186 0.238658 0.182928 -0.201385
C126  C     C_R   0.792296 0.761150 0.182846 -0.206471
C127  C     C_R   0.201939 0.230963 0.675775 0.902719
C128  C     C_R   0.207813 0.238659 0.817072 -0.201383
C129  C     C_R   0.689830 0.284101 0.905799 0.075081
C130  C     C_R   0.310064 0.715717 0.094281 0.072186
C131  C     C_R   0.310170 0.284101 0.094201 0.075080
C132  C     C_R   0.689936 0.715717 0.905719 0.072184
C133  C     C_R   0.189830 0.784100 0.905799 0.075081
C134  C     C_R   0.810064 0.215717 0.094281 0.072185
C135  C     C_R   0.810170 0.784101 0.094201 0.075080
C136  C     C_R   0.189936 0.215717 0.905719 0.072185
C137  C     C_R   0.697164 0.128426 0.515159 0.933222
C138  C     C_R   0.058622 0.371625 0.468258 -0.223266
C139  C     C_R   0.302985 0.871599 0.484372 0.907020
C140  C     C_R   0.302836 0.128426 0.484840 0.933220
C141  C     C_R   0.697015 0.871599 0.515627 0.907018
C142  C     C_R   0.197164 0.628426 0.515159 0.933220
C143  C     C_R   0.802985 0.371599 0.484373 0.907019
C144  C     C_R   0.802836 0.628426 0.484841 0.933220
C145  C     C_R   0.197015 0.371599 0.515627 0.907019
C146  C     C_R   0.074056 0.099412 0.933889 0.911031
C147  C     C_R   0.925947 0.900584 0.066111 0.910451
C148  C     C_R   0.925944 0.099412 0.066111 0.911031
H1    H     H_    0.724252 0.000036 0.532637 0.198588
H2    H     H_    0.455414 0.176116 0.549982 0.143845
H3    H     H_    0.455271 0.823247 0.549231 0.146018
H4    H     H_    0.544591 0.176117 0.450008 0.143844
H5    H     H_    0.710052 0.370963 0.016521 0.129218
H6    H     H_    0.289833 0.628832 0.983581 0.129210
H7    H     H_    0.289943 0.370966 0.983487 0.129219
H8    H     H_    0.710172 0.628829 0.016409 0.129212
H9    H     H_    0.210051 0.870963 0.016522 0.129218
H10   H     H_    0.789832 0.128831 0.983583 0.129211
H11   H     H_    0.789943 0.870966 0.983487 0.129220
H12   H     H_    0.275747 0.000035 0.467366 0.198588
H13   H     H_    0.210172 0.128829 0.016410 0.129212
H14   H     H_    0.740084 0.157539 0.904372 0.129422
H15   H     H_    0.259788 0.842250 0.095740 0.129649
H16   H     H_    0.259920 0.157537 0.095621 0.129423
H17   H     H_    0.740206 0.842253 0.904269 0.129651
H18   H     H_    0.240085 0.657539 0.904371 0.129421
H19   H     H_    0.759789 0.342251 0.095738 0.129649
H20   H     H_    0.759921 0.657537 0.095620 0.129423
H21   H     H_    0.240206 0.342253 0.904269 0.129651
H22   H     H_    0.629089 0.347102 0.013969 0.146306
H23   H     H_    0.224253 0.500035 0.532634 0.198588
H24   H     H_    0.370835 0.652773 0.986081 0.147441
H25   H     H_    0.370910 0.347103 0.986032 0.146307
H26   H     H_    0.629166 0.652771 0.013919 0.147442
H27   H     H_    0.129089 0.847102 0.013969 0.146306
H28   H     H_    0.870835 0.152773 0.986081 0.147441
H29   H     H_    0.870910 0.847103 0.986032 0.146307
H30   H     H_    0.129166 0.152772 0.013919 0.147442
H31   H     H_    0.612351 0.338925 0.777251 0.176958
H32   H     H_    0.387656 0.661109 0.222718 0.177193
H33   H     H_    0.387649 0.338924 0.222749 0.176958
H34   H     H_    0.775747 0.500035 0.467365 0.198588
H35   H     H_    0.612344 0.661109 0.777282 0.177193
H36   H     H_    0.112351 0.838924 0.777251 0.176958
H37   H     H_    0.887656 0.161109 0.222718 0.177193
H38   H     H_    0.887649 0.838924 0.222749 0.176958
H39   H     H_    0.112344 0.161109 0.777282 0.177193
H40   H     H_    0.744805 0.230207 0.782839 0.152821
H41   H     H_    0.255057 0.769543 0.217269 0.148167
H42   H     H_    0.255195 0.230206 0.217160 0.152822
H43   H     H_    0.744943 0.769545 0.782732 0.148168
H44   H     H_    0.244805 0.730207 0.782839 0.152821
H45   H     H_    0.044733 0.323246 0.450758 0.146018
H46   H     H_    0.755057 0.269544 0.217269 0.148167
H47   H     H_    0.755195 0.730206 0.217161 0.152822
H48   H     H_    0.244943 0.269545 0.782732 0.148168
H49   H     H_    0.189336 0.338988 0.363265 0.202622
H50   H     H_    0.142333 0.272126 0.417371 0.212347
H51   H     H_    0.847744 0.675088 0.667930 0.171302
H52   H     H_    0.867465 0.730372 0.579097 0.188328
H53   H     H_    0.810664 0.338988 0.636735 0.202622
H54   H     H_    0.857667 0.272126 0.582629 0.212347
H55   H     H_    0.152257 0.675088 0.332068 0.171301
H56   H     H_    0.955412 0.676117 0.549987 0.143844
H57   H     H_    0.132535 0.730372 0.420902 0.188327
H58   H     H_    0.689339 0.838988 0.363265 0.202623
H59   H     H_    0.642335 0.772126 0.417368 0.212346
H60   H     H_    0.347746 0.175087 0.667928 0.171302
H61   H     H_    0.367466 0.230371 0.579095 0.188327
H62   H     H_    0.310667 0.838988 0.636732 0.202623
H63   H     H_    0.357669 0.772126 0.582625 0.212345
H64   H     H_    0.652259 0.175089 0.332066 0.171301
H65   H     H_    0.632536 0.230372 0.420901 0.188327
H66   H     H_    0.955267 0.323247 0.549244 0.146018
H67   H     H_    0.044589 0.676117 0.450011 0.143844
H68   H     H_    0.544736 0.823248 0.450749 0.146019
N1    N     N_3   0.149053 0.323001 0.388094 -0.449997
N2    N     N_3   0.850981 0.679814 0.604375 -0.411735
N3    N     N_3   0.850946 0.323001 0.611906 -0.449997
N4    N     N_3   0.149020 0.679814 0.395624 -0.411736
N5    N     N_3   0.649056 0.823002 0.388091 -0.449995
N6    N     N_3   0.350983 0.179813 0.604373 -0.411736
N7    N     N_3   0.350950 0.823002 0.611901 -0.449998
N8    N     N_3   0.649021 0.179814 0.395623 -0.411734
O1    O     O_R   0.746490 0.236330 0.638080 -0.656396
O2    O     O_R   0.325830 0.813840 0.483730 -0.646804
O3    O     O_R   0.325830 0.186160 0.483730 -0.619180
O4    O     O_R   0.674170 0.813840 0.516270 -0.646803
O5    O     O_R   0.174170 0.686160 0.516270 -0.619180
O6    O     O_R   0.825830 0.313840 0.483730 -0.646803
O7    O     O_R   0.825830 0.686160 0.483730 -0.619181
O8    O     O_R   0.174170 0.313840 0.516270 -0.646804
O9    O     O_R   0.739960 0.127620 0.525000 -0.635400
O10   O     O_R   0.260040 0.872380 0.475000 -0.629621
O11   O     O_R   0.260040 0.127620 0.475000 -0.635400
O12   O     O_R   0.253510 0.763670 0.361920 -0.636824
O13   O     O_R   0.739960 0.872380 0.525000 -0.629621
O14   O     O_R   0.239960 0.627620 0.525000 -0.635399
O15   O     O_R   0.760040 0.372380 0.475000 -0.629621
O16   O     O_R   0.760040 0.627620 0.475000 -0.635399
O17   O     O_R   0.239960 0.372380 0.525000 -0.629621
O18   O     O_R   0.680700 0.294870 0.629350 -0.628549
O19   O     O_R   0.319300 0.705130 0.370650 -0.630128
O20   O     O_R   0.319300 0.294870 0.370650 -0.628549
O21   O     O_R   0.680700 0.705130 0.629350 -0.630127
O22   O     O_R   0.180700 0.794870 0.629350 -0.628549
O23   O     O_R   0.253510 0.236330 0.361920 -0.656396
O24   O     O_R   0.819300 0.205130 0.370650 -0.630127
O25   O     O_R   0.819300 0.794870 0.370650 -0.628549
O26   O     O_R   0.180700 0.205130 0.629350 -0.630127
O27   O     O_R   0.062020 0.072840 0.007170 -0.630619
O28   O     O_R   0.937980 0.927160 0.992830 -0.630716
O29   O     O_R   0.937980 0.072840 0.992830 -0.630619
O30   O     O_R   0.062020 0.927160 0.007170 -0.630716
O31   O     O_R   0.562020 0.572840 0.007170 -0.630619
O32   O     O_R   0.437980 0.427160 0.992830 -0.630716
O33   O     O_R   0.437980 0.572840 0.992830 -0.630619
O34   O     O_R   0.746490 0.763670 0.638080 -0.636824
O35   O     O_R   0.562020 0.427160 0.007170 -0.630717
O36   O     O_R   0.947860 0.073950 0.109290 -0.623661
O37   O     O_R   0.052140 0.926050 0.890710 -0.624128
O38   O     O_R   0.052140 0.073950 0.890710 -0.623661
O39   O     O_R   0.947860 0.926050 0.109290 -0.624128
O40   O     O_R   0.447860 0.573950 0.109290 -0.623661
O41   O     O_R   0.552140 0.426050 0.890710 -0.624128
O42   O     O_R   0.552140 0.573950 0.890710 -0.623661
O43   O     O_R   0.447860 0.426050 0.109290 -0.624128
O44   O     O_R   0.246490 0.736330 0.638080 -0.656395
O45   O     O_R   0.753510 0.263670 0.361920 -0.636824
O46   O     O_R   0.753510 0.736330 0.361920 -0.656397
O47   O     O_R   0.246490 0.263670 0.638080 -0.636824
O48   O     O_R   0.674170 0.186160 0.516270 -0.619181
Zn1   Zn    Zn3+2 0.792340 0.208750 0.507670 0.920642
Zn2   Zn    Zn3+2 0.494040 0.500000 0.919480 0.932187
Zn3   Zn    Zn3+2 0.005960 0.000000 0.080520 0.932187
Zn4   Zn    Zn3+2 0.994040 1.000000 0.919480 0.932186
Zn5   Zn    Zn3+2 0.207660 0.791250 0.492330 0.932873
Zn6   Zn    Zn3+2 0.207660 0.208750 0.492330 0.920641
Zn7   Zn    Zn3+2 0.792340 0.791250 0.507670 0.932873
Zn8   Zn    Zn3+2 0.292340 0.708750 0.507670 0.920642
Zn9   Zn    Zn3+2 0.707660 0.291250 0.492330 0.932873
Zn10  Zn    Zn3+2 0.707660 0.708750 0.492330 0.920642
Zn11  Zn    Zn3+2 0.292340 0.291250 0.507670 0.932873
Zn12  Zn    Zn3+2 0.505960 0.500000 0.080520 0.932187

loop_
_geom_bond_atom_site_label_1
_geom_bond_atom_site_label_2
_ccdc_geom_bond_type
C125  C134  A    
C61   O19   A    
C14   C56   A    
C99   C148  S    
C11   C18   A    
C65   C79   A    
C123  C132  A    
C55   C57   A    
H52   N2    S    
C72   O20   A    
C144  O7    A    
C7    O35   A    
C49   N2    S    
C8    C43   A    
C124  H44   S    
C121  C130  A    
C73   H19   S    
C105  C117  S    
C25   C43   A    
C74   H20   S    
C69   C78   A    
C81   H5    S    
C34   C145  S    
H57   N4    S    
O37   Zn4   S    
C42   H34   S    
C59   C130  S    
C99   C108  A    
O15   Zn9   S    
C89   H27   S    
C11   C19   A    
O33   Zn2   S    
C33   C39   A    
C30   C141  S    
C148  O29   A    
H55   N4    S    
C106  C114  A    
C139  O2    A    
C86   H24   S    
C12   C57   A    
O26   Zn6   S    
C5    O32   A    
O35   Zn12  S    
O13   Zn7   S    
C148  O36   A    
O14   Zn8   S    
C128  C136  A    
C16   C35   A    
C121  H41   S    
C90   C134  A    
C24   H67   S    
H49   N1    S    
C75   C84   A    
C138  H45   S    
C116  O25   A    
O8    Zn6   S    
C10   C17   A    
H60   N6    S    
C57   H4    S    
C90   H28   S    
C50   N3    S    
C68   C77   A    
C88   H26   S    
C31   C40   A    
C62   C70   A    
C83   O34   A    
C124  C133  A    
C103  H32   S    
C4    O42   A    
C20   C138  A    
C37   C42   A    
C7    O41   A    
C9    C44   A    
O42   Zn2   S    
C146  O38   A    
C26   C45   A    
C85   C129  A    
C21   C43   A    
O36   Zn3   S    
C85   C93   A    
C126  H47   S    
C26   C34   A    
C22   C44   A    
C113  C122  A    
C28   C37   A    
C3    O37   A    
C71   H18   S    
C1    O18   A    
C29   C38   A    
C75   H21   S    
C140  O11   A    
C64   C73   A    
C69   H16   S    
C142  O14   A    
C115  C124  A    
C110  H39   S    
C125  H46   S    
C91   C100  A    
C35   H68   S    
O18   Zn9   S    
C88   C97   A    
C26   C48   A    
C140  O3    A    
C82   H8    S    
C119  C128  A    
C24   C51   A    
C11   C47   A    
C62   C82   A    
O9    Zn1   S    
C52   N5    S    
C8    C16   A    
O10   Zn5   S    
C127  O47   A    
C4    C97   S    
C102  H31   S    
C38   C142  S    
C83   C114  S    
O45   Zn9   S    
C102  C111  A    
C92   C136  A    
H51   N2    S    
C28   C50   A    
C74   C82   A    
C116  O46   A    
C120  H40   S    
C60   C131  S    
C73   C81   A    
C71   C80   A    
C137  O48   A    
C95   C103  A    
C109  C118  A    
C122  H42   S    
C22   C53   A    
C64   C134  S    
C48   N1    S    
C46   C53   A    
C105  O45   A    
C7    C93   S    
C137  O9    A    
C54   C56   A    
C147  O28   A    
C17   C24   A    
C89   C133  A    
C22   C31   A    
C120  C129  A    
C62   C132  S    
C108  H37   S    
C107  H36   S    
C2    H56   S    
H53   N3    S    
C38   C41   A    
C116  C118  S    
C36   C42   A    
C70   H17   S    
C10   C20   A    
H58   N5    S    
C86   C130  A    
C142  O5    A    
O43   Zn12  S    
C53   N6    S    
C2    C19   A    
C89   C98   A    
C33   C137  S    
C72   C113  S    
C65   C74   A    
O12   Zn5   S    
C29   C45   A    
C111  C120  A    
C144  O16   A    
C13   H66   S    
C93   C102  A    
O22   Zn5   S    
C9    C14   A    
C105  O24   A    
C34   C41   A    
C2    C49   A    
O4    Zn10  S    
C59   C68   A    
C41   H23   S    
O41   Zn2   S    
C59   C80   A    
O47   Zn11  S    
O17   Zn11  S    
C12   C15   A    
C8    C12   A    
H63   N7    S    
C87   C96   A    
C83   O21   A    
C139  O10   A    
C76   H10   S    
C64   C76   A    
C145  O17   A    
C101  C146  S    
O28   Zn4   S    
C143  O15   A    
O2    Zn8   S    
O46   Zn10  S    
C56   H3    S    
C80   H6    S    
C94   O22   A    
C107  C115  A    
C65   C135  S    
C92   H30   S    
C92   C101  A    
C32   C139  S    
C66   C136  S    
C114  C123  A    
C13   C18   A    
C66   C78   A    
C27   C47   A    
C87   C131  A    
C46   H2    S    
C145  O8    A    
C63   C71   A    
C126  C135  A    
C5    O43   A    
O39   Zn3   S    
C6    O33   A    
O6    Zn1   S    
C51   N4    S    
H64   N8    S    
C14   C16   A    
C58   C81   A    
H50   N1    S    
C97   C106  A    
C123  H43   S    
C28   C47   A    
C63   C133  S    
C122  C131  A    
O21   Zn10  S    
C5    C96   S    
O38   Zn4   S    
C72   O23   A    
C23   C54   A    
C63   C77   A    
C68   H15   S    
C1    O1    A    
O48   Zn9   S    
C90   C99   A    
H61   N6    S    
O44   Zn8   S    
C35   C52   A    
O20   Zn11  S    
C141  O13   A    
H62   N7    S    
C37   C143  S    
C70   C79   A    
C9    C15   A    
O11   Zn6   S    
O1    Zn1   S    
C58   C129  S    
C40   H12   S    
C128  H48   S    
C87   H25   S    
O27   Zn3   S    
O29   Zn4   S    
O3    Zn11  S    
C110  C119  A    
C6    O40   A    
C94   C115  S    
H59   N5    S    
C118  C126  A    
C109  H38   S    
O32   Zn2   S    
C84   H7    S    
C94   O44   A    
C21   C30   A    
C39   H1    S    
C85   H22   S    
C15   C46   A    
C48   C138  A    
C146  O27   A    
C27   C36   A    
C23   C32   A    
C127  O26   A    
O23   Zn6   S    
C96   C104  A    
C101  C110  A    
C3    O30   A    
C112  C121  A    
C1    C111  S    
C79   H11   S    
C60   C84   A    
C67   H14   S    
C54   N7    S    
O19   Zn8   S    
C117  C125  A    
C60   C69   A    
C141  O4    A    
O40   Zn12  S    
C66   C75   A    
C91   H29   S    
O31   Zn12  S    
O5    Zn5   S    
C104  C113  A    
H65   N8    S    
C25   C55   A    
C30   C39   A    
C104  H33   S    
C18   C20   A    
O24   Zn1   S    
C32   C40   A    
C143  O6    A    
C36   C144  S    
C106  H35   S    
C108  C117  A    
C86   C95   A    
C23   C44   A    
C29   C51   A    
C13   C50   A    
C17   C19   A    
O25   Zn7   S    
C58   C67   A    
C100  C109  A    
O30   Zn3   S    
C91   C135  A    
C78   H13   S    
C6    C95   S    
C10   C45   A    
C77   H9    S    
O34   Zn7   S    
C61   O12   A    
C88   C132  A    
C103  C112  A    
O16   Zn10  S    
C67   C76   A    
C100  C147  S    
C4    O31   A    
C31   C140  S    
C61   C112  S    
C147  O39   A    
O7    Zn7   S    
C21   C52   A    
C3    C98   S    
C27   C49   A    
C25   C33   A    
C55   N8    S    
C98   C107  A    
H54   N3    S    
C119  C127  S    
