data_mof_unit_pretest_1249.cif
_audit_creation_date              2012-12-11T16:56:20-0500
_audit_creation_method            fapswitch 2.2
_symmetry_space_group_name_H-M    P1
_symmetry_Int_Tables_number       1
_space_group_crystal_system       triclinic
_cell_length_a                    6.957306
_cell_length_b                    14.529675
_cell_length_c                    16.20379
_cell_angle_alpha                 90.389168
_cell_angle_beta                  89.992297
_cell_angle_gamma                 90.004807
_cell_volume                      1637.96111642

loop_
_atom_site_label
_atom_site_type_symbol
_atom_type_description
_atom_site_fract_x
_atom_site_fract_y
_atom_site_fract_z
_atom_type_partial_charge
O1    O     O_R   0.505830 0.583360 0.413880 -0.536414
O2    O     O_R   0.175830 0.595460 0.585520 -0.544751
O3    O     O_R   0.005520 0.416640 0.586120 -0.540796
C1    C     C_R   0.344636 0.617382 0.614203 0.701251
O4    O     O_R   0.176120 0.594390 0.414490 -0.544100
O5    O     O_R   0.005810 0.415570 0.413870 -0.539868
C2    C     C_R   0.344945 0.616175 0.385829 0.695427
O6    O     O_R   0.505540 0.584430 0.586130 -0.536075
O7    O     O_3   0.339200 0.441330 0.500000 -0.370577
V1    V     V_3+5 0.064350 0.510880 0.500000 1.387020
O8    O     O_R   0.676100 0.404540 0.414480 -0.539773
C3    C     C_R   0.845137 0.382329 0.385918 0.693943
O9    O     O_R   0.675810 0.405610 0.585510 -0.540009
C4    C     C_R   0.844984 0.383866 0.613769 0.745306
V2    V     V_3+5 0.564340 0.489120 0.500000 1.397741
O10   O     O_3   0.839360 0.558670 0.500000 -0.372569
C5    C     C_2   0.720808 0.209683 0.786680 -0.129785
C6    C     C_2   0.885621 0.182055 0.822797 -0.312026
H1    H     H_    0.585188 0.181329 0.807869 0.136663
H2    H     H_    0.022907 0.209802 0.803782 0.127714
C7    C     C_2   0.708448 0.278238 0.718750 -0.137563
C8    C     C_2   0.861448 0.315758 0.680717 -0.311240
H3    H     H_    0.564860 0.297708 0.699202 0.134489
H4    H     H_    0.006165 0.297037 0.698449 0.129536
C9    C     C_R   0.727251 0.246675 0.190715 0.105249
C10   C     C_R   0.882670 0.185871 0.183211 -0.109389
C11   C     C_R   0.034584 0.196355 0.239964 -0.179263
H5    H     H_    0.157411 0.151022 0.236704 0.129047
C12   C     C_R   0.022801 0.260673 0.305327 -0.178490
H6    H     H_    0.137937 0.263717 0.350059 0.129663
C13   C     C_R   0.858176 0.315966 0.316197 -0.109099
C14   C     C_R   0.715253 0.310057 0.255542 0.093338
C15   C     C_3   0.504675 0.295122 0.265020 -0.414340
C16   C     C_3   0.517672 0.226403 0.194125 -0.394701
H7    H     H_    0.420069 0.357606 0.249661 0.170734
H8    H     H_    0.468957 0.262754 0.325033 0.171684
H9    H     H_    0.441176 0.249322 0.137656 0.174703
H10   H     H_    0.488749 0.154256 0.212849 0.165749
C17   C     C_R   0.513167 0.691780 0.734591 0.087073
C18   C     C_R   0.354562 0.685498 0.682360 -0.104379
C19   C     C_R   0.203444 0.748231 0.699128 -0.189038
H11   H     H_    0.077232 0.749258 0.660138 0.126431
C20   C     C_R   0.215512 0.811770 0.766062 -0.187873
H12   H     H_    0.098228 0.859553 0.775827 0.125964
C21   C     C_R   0.378512 0.814395 0.818674 -0.127684
C22   C     C_R   0.524580 0.752409 0.799103 0.068178
C23   C     C_3   0.716307 0.716990 0.825916 -0.173851
C24   C     C_3   0.700797 0.647483 0.753510 -0.437831
H13   H     H_    0.830491 0.769266 0.816802 0.128937
H14   H     H_    0.682855 0.574461 0.772211 0.169019
H15   H     H_    0.807985 0.658770 0.703890 0.170212
C25   C     C_R   0.511660 0.683609 0.262139 0.094186
C26   C     C_R   0.353262 0.681160 0.315550 -0.113471
C27   C     C_R   0.199892 0.741364 0.298683 -0.184582
H16   H     H_    0.075962 0.742800 0.338738 0.139027
C28   C     C_R   0.210985 0.805077 0.233660 -0.188029
H17   H     H_    0.094156 0.853111 0.225129 0.131868
C29   C     C_R   0.376669 0.811231 0.183948 -0.116083
C30   C     C_R   0.523754 0.747698 0.198459 0.129912
C31   C     C_3   0.730568 0.765926 0.215554 -0.414168
C32   C     C_3   0.718333 0.694975 0.283582 -0.408006
H18   H     H_    0.755012 0.837021 0.239121 0.161801
H19   H     H_    0.824881 0.744784 0.163619 0.189173
H20   H     H_    0.738591 0.724626 0.346427 0.172494
H21   H     H_    0.802921 0.631668 0.270304 0.166772
O11   O     O_R   0.229930 0.912420 0.917160 -0.542071
O12   O     O_R   0.559420 0.902500 0.088780 -0.537247
O13   O     O_R   0.729660 0.081330 0.089380 -0.538407
C33   C     C_R   0.390358 0.880854 0.117560 0.696269
O14   O     O_R   0.559650 0.901420 0.917750 -0.538845
O15   O     O_R   0.729880 0.080250 0.917130 -0.537328
C34   C     C_R   0.390706 0.879786 0.888861 0.703052
O16   O     O_R   0.229700 0.913500 0.089410 -0.541286
O17   O     O_3   0.396250 0.055540 0.003280 -0.371306
V3    V     V_3+5 0.671130 0.986010 0.003260 1.407132
O18   O     O_R   0.059600 0.091310 0.917720 -0.544709
C35   C     C_R   0.890899 0.113300 0.889627 0.743083
O19   O     O_R   0.059370 0.092380 0.088750 -0.543693
C36   C     C_R   0.890610 0.114710 0.117243 0.690657
V4    V     V_3+5 0.171120 0.007820 0.003230 1.388611
O20   O     O_3   0.896130 0.938240 0.003240 -0.369365
C37   C     C_R   0.720752 0.671843 0.909911 0.156117
C38   C     C_R   0.893775 0.672154 0.954690 -0.109857
C39   C     C_R   0.905849 0.627663 0.030735 -0.147591
C40   C     C_R   0.744942 0.583156 0.063203 -0.094695
C41   C     C_R   0.571668 0.583024 0.019665 -0.130911
C42   C     C_R   0.559376 0.626495 0.943121 -0.138152
H22   H     H_    0.020232 0.705947 0.930271 0.103280
H23   H     H_    0.039943 0.627939 0.064645 0.109808
H24   H     H_    0.754335 0.549065 0.122252 0.105689
H25   H     H_    0.447047 0.548688 0.045002 0.107800
H26   H     H_    0.424490 0.624174 0.909878 0.109482

loop_
_geom_bond_atom_site_label_1
_geom_bond_atom_site_label_2
_ccdc_geom_bond_type
C11   C12   A    
C16   H9    S    
C19   H11   S    
C1    O6    A    
C23   H13   S    
C21   C22   A    
O13   V3    S    
C10   C11   A    
C31   H19   S    
C25   C32   S    
O5    C3    A    
C15   H7    S    
O19   V4    S    
C37   C42   A    
C15   H8    S    
C28   H17   S    
C31   H18   S    
C23   C37   S    
O1    C2    A    
C22   C23   S    
O8    V2    S    
C24   H15   S    
O11   C34   A    
C13   C14   A    
C33   O16   A    
O1    V2    S    
O7    V1    S    
C9    C16   S    
C9    C14   A    
C24   H14   S    
C38   H22   S    
C30   C31   S    
O17   V4    S    
C7    C8    D    
C21   C34   S    
C19   C20   A    
C15   C16   S    
C27   C28   A    
O17   V3    S    
C23   C24   S    
C1    C18   S    
O18   C35   A    
C17   C18   A    
O4    C2    A    
C41   C42   A    
V3    O20   S    
C29   C30   A    
C26   C27   A    
C5    C7    S    
C31   C32   S    
O12   C33   A    
C32   H20   S    
O2    C1    A    
C20   H12   S    
C12   H6    S    
C25   C30   A    
C38   C39   A    
O8    C3    A    
C5    C6    D    
C39   C40   A    
C20   C21   A    
C40   C41   A    
O3    C4    A    
C17   C22   A    
C18   C19   A    
O6    V2    S    
O9    V2    S    
C3    C13   S    
C8    H4    S    
O12   V3    S    
C39   H23   S    
C2    C26   S    
O2    V1    S    
O15   C35   A    
C42   H26   S    
C25   C26   A    
C27   H16   S    
C16   H10   S    
O18   V4    S    
V4    O20   S    
O5    V1    S    
C40   H24   S    
C29   C33   S    
O11   V4    S    
C10   C36   S    
C41   H25   S    
C14   C15   S    
C4    C8    S    
C7    H3    S    
C9    C10   A    
O4    V1    S    
C12   C13   A    
O3    V1    S    
V1    O10   S    
O15   V3    S    
O19   C36   A    
O13   C36   A    
C6    C35   S    
C5    H1    S    
O16   V4    S    
C28   C29   A    
C6    H2    S    
O7    V2    S    
C32   H21   S    
C37   C38   A    
O14   V3    S    
O14   C34   A    
O9    C4    A    
V2    O10   S    
C17   C24   S    
C11   H5    S    
