data_mof_unit_pretest_220.cif
_audit_creation_date              2012-10-26T20:05:59-0400
_audit_creation_method            fapswitch 2.2
_symmetry_space_group_name_H-M    P1
_symmetry_Int_Tables_number       1
_space_group_crystal_system       triclinic
_cell_length_a                    9.625385
_cell_length_b                    10.813079
_cell_length_c                    13.529556
_cell_angle_alpha                 90.185599
_cell_angle_beta                  75.351079
_cell_angle_gamma                 89.785764
_cell_volume                      1362.36045454

loop_
_atom_site_label
_atom_site_type_symbol
_atom_type_description
_atom_site_fract_x
_atom_site_fract_y
_atom_site_fract_z
_atom_type_partial_charge
C1    C     C_R   0.499695 0.737335 0.500139 0.550160
C2    C     C_R   0.383084 0.444903 0.804762 0.013155
C3    C     C_R   0.627002 0.932722 0.452647 -0.055529
C4    C     C_R   0.425705 0.478899 0.695974 0.594074
C5    C     C_R   0.629074 0.060703 0.448763 0.246427
C6    C     C_R   0.502946 0.127930 0.494203 0.049585
C7    C     C_R   0.375321 0.065005 0.538484 -0.130735
C8    C     C_R   0.373628 0.936975 0.540045 -0.124961
C9    C     C_R   0.499997 0.870907 0.498257 -0.007344
C10   C     C_R   0.904670 0.578136 0.562661 0.364271
C11   C     C_R   0.052786 0.578674 0.561467 0.101002
C12   C     C_R   0.441769 0.464926 0.968201 0.017117
C13   C     C_R   0.095461 0.419682 0.439978 0.066683
C14   C     C_R   0.948122 0.421299 0.438590 0.069256
C15   C     C_R   0.501432 0.262346 0.496924 0.591368
C16   C     C_R   0.575029 0.494420 0.300858 0.583121
C17   C     C_R   0.790562 0.428889 0.031753 -0.065207
C18   C     C_R   0.613455 0.476923 0.188653 0.032505
C19   C     C_R   0.237933 0.448667 0.855459 0.204490
C20   C     C_R   0.198852 0.498028 0.953796 -0.089493
C21   C     C_R   0.303312 0.515823 0.007074 -0.079014
C22   C     C_R   0.482370 0.428264 0.863799 -0.006082
C23   C     C_R   0.542027 0.452428 0.028344 0.033232
C24   C     C_R   0.683816 0.418331 0.979780 -0.047098
C25   C     C_R   0.714404 0.365342 0.882635 -0.007678
C26   C     C_R   0.614103 0.366475 0.825499 0.250972
C27   C     C_R   0.504445 0.458785 0.135924 0.183022
C28   C     C_R   0.758912 0.467447 0.132725 0.200383
Cl1   Cl    Cl    0.907866 0.489702 0.184803 -0.573186
Cl2   Cl    Cl    0.789358 0.130014 0.379737 -0.550355
Cl3   Cl    Cl    0.791466 0.679619 0.648321 -0.520670
Cl4   Cl    Cl    0.335757 0.395837 0.200181 -0.580079
Cl5   Cl    Cl    0.648070 0.268001 0.717781 -0.522849
Cu1   Cu    Cu3+1 0.359340 0.499980 0.500000 1.075132
Cu2   Cu    Cu3+1 0.640660 0.500020 0.500000 1.151776
H1    H     H_    0.277057 0.114711 0.572954 0.194677
H2    H     H_    0.723954 0.881331 0.417542 0.181153
H3    H     H_    0.119372 0.208174 0.901032 0.370899
H4    H     H_    0.274469 0.889742 0.575309 0.158798
H5    H     H_    0.091022 0.641616 0.610981 0.156324
H6    H     H_    0.166900 0.353048 0.393357 0.193704
H7    H     H_    0.911615 0.359054 0.388186 0.216948
H8    H     H_    0.812075 0.314233 0.853470 0.253756
H9    H     H_    0.899610 0.409256 0.993657 0.219947
H10   H     H_    0.272363 0.561692 0.080498 0.207608
H11   H     H_    0.089018 0.521996 0.989203 0.183714
N1    N     N_R   0.147940 0.499970 0.499970 -0.261158
N2    N     N_R   0.852060 0.500060 0.499990 -0.228744
O1    O     O_R   0.381250 0.680340 0.500010 -0.528423
O2    O     O_2   0.179292 0.302471 0.706957 -0.252219
O3    O     O_3   0.037386 0.257352 0.890350 -0.545661
O4    O     O_R   0.618820 0.680370 0.500010 -0.467559
O5    O     O_R   0.323240 0.499950 0.650980 -0.462406
O6    O     O_R   0.560810 0.499980 0.650980 -0.435445
O7    O     O_R   0.381180 0.319630 0.499990 -0.505596
O8    O     O_R   0.618750 0.319660 0.499990 -0.436687
O9    O     O_R   0.439190 0.500020 0.349020 -0.469435
O10   O     O_R   0.676760 0.500050 0.349020 -0.461475
O11   O     O_2   0.001887 0.458180 0.789682 -0.294187
S1    S     S_3+6 0.112032 0.367169 0.806045 -0.005985

loop_
_geom_bond_atom_site_label_1
_geom_bond_atom_site_label_2
_ccdc_geom_bond_type
C2    C22   A    
Cu1   O9    S    
C2    C4    S    
C23   C24   A    
C6    C7    A    
C3    C9    A    
C8    H4    S    
C23   C27   A    
C19   S1    S    
C7    H1    S    
C26   Cl5   S    
C11   N1    A    
C19   C20   A    
C14   H7    S    
O2    S1    D    
C15   O8    A    
C25   H8    S    
O3    S1    S    
C13   H6    S    
C6    C15   S    
C17   H9    S    
C1    C9    S    
O11   S1    D    
C16   O10   A    
C13   C14   A    
C24   C25   A    
Cu2   O6    S    
C12   C23   A    
C5    C6    A    
Cu2   O10   S    
Cu2   N2    S    
C10   Cl3   S    
C28   Cl1   S    
Cu1   Cu2   S    
C21   H10   S    
C16   O9    A    
C10   N2    A    
C11   H5    S    
C4    O5    A    
C1    O4    A    
Cu2   O8    S    
C17   C24   A    
C7    C8    A    
C10   C11   A    
C27   Cl4   S    
Cu1   N1    S    
C12   C22   A    
Cu1   O7    S    
C18   C28   A    
C20   C21   A    
C3    H2    S    
Cu1   O5    S    
C16   C18   S    
C5    Cl2   S    
C22   C26   A    
Cu2   O4    S    
C13   N1    A    
Cu1   O1    S    
C14   N2    A    
H3    O3    S    
C4    O6    A    
C25   C26   A    
C2    C19   A    
C17   C28   A    
C1    O1    A    
C12   C21   A    
C20   H11   S    
C18   C27   A    
C8    C9    A    
C3    C5    A    
C15   O7    A    
