data_mof_unit_pretest_1327.cif
_audit_creation_date              2012-12-11T17:10:26-0500
_audit_creation_method            fapswitch 2.2
_symmetry_space_group_name_H-M    P1
_symmetry_Int_Tables_number       1
_space_group_crystal_system       triclinic
_cell_length_a                    14.960301
_cell_length_b                    14.927021
_cell_length_c                    14.896109
_cell_angle_alpha                 109.186798
_cell_angle_beta                  110.078327
_cell_angle_gamma                 108.978211
_cell_volume                      2565.90164393

loop_
_atom_site_label
_atom_site_type_symbol
_atom_type_description
_atom_site_fract_x
_atom_site_fract_y
_atom_site_fract_z
_atom_type_partial_charge
C1    C     C_R   0.201493 0.295029 0.196787 -0.150779
C2    C     C_R   0.405521 0.496217 0.194983 -0.139869
C3    C     C_R   0.552216 0.815250 0.588120 -0.126360
C4    C     C_R   0.525345 0.432388 0.746312 -0.143224
C5    C     C_R   0.724539 0.454179 0.408917 -0.128279
C6    C     C_R   0.537573 0.823618 0.494649 0.071217
C7    C     C_R   0.829134 0.518540 0.502625 0.055989
C8    C     C_R   0.436288 0.434979 0.132488 0.081111
C9    C     C_R   0.825078 0.828046 0.808908 0.071573
C10   C     C_R   0.097748 0.611029 0.189288 -0.120861
C11   C     C_R   0.102383 0.630802 0.289751 -0.149580
C12   C     C_R   0.451779 0.449551 0.776141 0.071401
C13   C     C_R   0.021219 0.554250 0.293960 0.110492
C14   C     C_R   0.935013 0.458284 0.195542 -0.159497
C15   C     C_R   0.930570 0.439260 0.095398 -0.116457
C16   C     C_R   0.501404 0.199920 0.407101 -0.142617
C17   C     C_R   0.011989 0.515303 0.092289 -0.104234
C18   C     C_R   0.932182 0.550098 0.407353 -0.232260
C19   C     C_R   0.934146 0.560939 0.505582 0.062735
C20   C     C_R   0.037139 0.618512 0.604051 0.027880
C21   C     C_R   0.131156 0.659305 0.598728 -0.224428
C22   C     C_R   0.125713 0.615240 0.497628 0.043125
C23   C     C_R   0.561850 0.195642 0.497167 0.077584
C24   C     C_R   0.027318 0.573828 0.400932 0.032890
C25   C     C_R   0.114555 0.723679 0.807170 -0.201185
C26   C     C_R   0.139267 0.728163 0.908455 -0.111875
C27   C     C_R   0.107215 0.631927 0.913667 -0.087201
C28   C     C_R   0.295437 0.602198 0.589058 -0.132599
C29   C     C_R   0.050276 0.530969 0.817597 -0.132759
C30   C     C_R   0.025261 0.526121 0.716008 -0.151112
C31   C     C_R   0.055564 0.622600 0.709888 0.111736
C32   C     C_R   0.452480 0.347179 0.878254 0.164187
C33   C     C_R   0.407742 0.401503 0.832868 0.032067
C34   C     C_R   0.204623 0.577174 0.496579 0.065749
C35   C     C_R   0.335037 0.426460 0.861639 -0.197975
C36   C     C_R   0.331989 0.424199 0.953838 -0.202487
C37   C     C_R   0.400893 0.395959 0.016042 0.031580
C38   C     C_R   0.448622 0.344068 0.968377 0.158955
C39   C     C_3   0.560088 0.355457 0.017930 -0.523221
C40   C     C_R   0.594027 0.289023 0.590023 -0.143590
C41   C     C_3   0.564841 0.359579 0.919966 -0.517737
C42   C     C_R   0.536228 0.922712 0.390560 0.170041
C43   C     C_R   0.581748 0.923012 0.489857 0.036546
C44   C     C_R   0.658556 0.023883 0.586865 -0.202035
C45   C     C_R   0.469270 0.720034 0.405065 -0.146195
C46   C     C_R   0.664891 0.119725 0.587853 -0.207650
C47   C     C_R   0.594827 0.113382 0.491598 0.032717
C48   C     C_R   0.542654 0.017047 0.391398 0.156518
C49   C     C_3   0.429077 0.956690 0.294358 -0.520103
C50   C     C_3   0.422145 0.853596 0.293717 -0.533041
C51   C     C_R   0.017340 0.126092 0.972738 0.155049
C52   C     C_R   0.201715 0.506560 0.406728 -0.134887
C53   C     C_R   0.115733 0.125051 0.018531 0.035046
C54   C     C_R   0.121268 0.033092 0.961020 -0.206068
C55   C     C_R   0.024302 0.935216 0.882515 -0.204804
C56   C     C_R   0.814897 0.543338 0.592884 -0.137687
C57   C     C_R   0.923772 0.931179 0.861724 0.043280
C58   C     C_R   0.921920 0.029456 0.894793 0.165052
C59   C     C_3   0.855932 0.065177 0.938434 -0.536646
C60   C     C_3   0.960119 0.170893 0.024284 -0.512916
C61   C     C_R   0.435895 0.526900 0.750478 -0.125627
C62   C     C_R   0.289740 0.200266 0.196168 -0.122042
C63   C     C_R   0.197919 0.201900 0.133124 0.077862
C64   C     C_R   0.496813 0.405006 0.197081 -0.150778
C65   C     C_R   0.721505 0.814376 0.772819 -0.141196
C66   C     C_R   0.815512 0.725395 0.773618 -0.133216
H1    H     H_    0.155157 0.332376 0.169251 0.106297
H2    H     H_    0.160687 0.669891 0.186640 0.104538
H3    H     H_    0.169475 0.705295 0.364208 0.114067
H4    H     H_    0.552407 0.374365 0.749312 0.110803
H5    H     H_    0.872215 0.397143 0.196320 0.110567
H6    H     H_    0.864274 0.365107 0.020200 0.108331
H7    H     H_    0.856302 0.519108 0.334172 0.122763
H8    H     H_    0.208641 0.704442 0.674577 0.122386
H9    H     H_    0.142438 0.798853 0.804409 0.115278
H10   H     H_    0.184396 0.806310 0.983048 0.110954
H11   H     H_    0.127779 0.635876 0.992389 0.095487
H12   H     H_    0.874736 0.585387 0.677569 0.117616
H13   H     H_    0.026451 0.456559 0.821991 0.106047
H14   H     H_    0.982733 0.447618 0.642308 0.117090
H15   H     H_    0.291784 0.460966 0.823056 0.133084
H16   H     H_    0.479773 0.152187 0.323041 0.098809
H17   H     H_    0.286536 0.457066 0.982861 0.125050
H18   H     H_    0.621648 0.433527 0.096234 0.203835
H19   H     H_    0.557368 0.280956 0.020230 0.186666
H20   H     H_    0.629159 0.440290 0.943479 0.204391
H21   H     H_    0.565554 0.287790 0.866396 0.189185
H22   H     H_    0.702914 0.028062 0.664166 0.125745
H23   H     H_    0.516877 0.341668 0.169771 0.097241
H24   H     H_    0.713516 0.194724 0.665984 0.123806
H25   H     H_    0.370604 0.976771 0.314545 0.204938
H26   H     H_    0.428597 0.959395 0.220491 0.187009
H27   H     H_    0.360139 0.815684 0.314058 0.196671
H28   H     H_    0.331734 0.664501 0.672996 0.087747
H29   H     H_    0.417558 0.797067 0.219485 0.192748
H30   H     H_    0.197425 0.031483 0.986841 0.121741
H31   H     H_    0.028680 0.861982 0.848578 0.134171
H32   H     H_    0.795434 0.075024 0.879533 0.185575
H33   H     H_    0.823437 0.017682 0.974668 0.201555
H34   H     H_    0.698304 0.875097 0.795433 0.097791
H35   H     H_    0.959625 0.241720 0.015149 0.191846
H36   H     H_    0.984776 0.182352 0.108411 0.205797
H37   H     H_    0.655011 0.319557 0.673660 0.087473
H38   H     H_    0.148336 0.475641 0.320811 0.116261
H39   H     H_    0.382834 0.558892 0.761121 0.098870
H40   H     H_    0.320301 0.146816 0.168310 0.081759
H41   H     H_    0.441678 0.695509 0.319647 0.111139
H42   H     H_    0.881135 0.708065 0.800309 0.099742
H43   H     H_    0.344301 0.518720 0.165150 0.084447
H44   H     H_    0.591116 0.882109 0.669762 0.084934
H45   H     H_    0.702823 0.416589 0.323541 0.089228
H46   H     H_    0.008451 0.499735 0.014598 0.095896
N1    N     N_R   0.291070 0.347930 0.293870 -0.038778
N2    N     N_R   0.497240 0.291100 0.443210 -0.039038
N3    N     N_R   0.347890 0.554050 0.556810 -0.041284
N4    N     N_R   0.554050 0.347900 0.556830 -0.039449
N5    N     N_R   0.291070 0.497250 0.443190 -0.041288
N6    N     N_R   0.497240 0.554030 0.706140 -0.042554
N7    N     N_R   0.347890 0.291110 0.293870 -0.039355
N8    N     N_R   0.445950 0.652100 0.443170 -0.039795
N9    N     N_R   0.708930 0.502750 0.556810 -0.039672
N10   N     N_R   0.502760 0.445970 0.293860 -0.036723
N11   N     N_R   0.652110 0.708890 0.706130 -0.038753
N12   N     N_R   0.708930 0.652070 0.706130 -0.039659
N13   N     N_R   0.445950 0.502780 0.293850 -0.037393
N14   N     N_R   0.502760 0.708900 0.556790 -0.039186
N15   N     N_R   0.652110 0.445950 0.443190 -0.038825
N16   N     N_R   0.554050 0.497220 0.706150 -0.041812
Ni1   Ni    Ni4+2 0.369690 0.500010 0.369700 0.209047
Ni2   Ni    Ni4+2 0.630310 0.499990 0.630300 0.214883
Ni3   Ni    Ni4+2 0.500000 0.369720 0.369720 0.205055
Ni4   Ni    Ni4+2 0.500000 0.630280 0.630280 0.209904

loop_
_geom_bond_atom_site_label_1
_geom_bond_atom_site_label_2
_ccdc_geom_bond_type
C25   C31   A    
C2    H43   S    
C6    C45   A    
N11   Ni4   S    
C27   C29   A    
C53   C63   S    
N2    Ni3   S    
C35   C36   A    
N9    Ni2   S    
C3    C6    A    
C4    H4    S    
C35   H15   S    
C3    N14   A    
N11   N12   A    
C39   C41   S    
C40   N4    A    
C53   C54   A    
C15   H6    S    
C26   C27   A    
C29   C30   A    
N1    Ni1   S    
C18   C24   A    
C7    C56   A    
C36   C37   A    
C37   C38   A    
C39   H18   S    
N9    N15   A    
C30   C31   A    
N8    N14   A    
C50   H29   S    
C36   H17   S    
C23   C40   A    
C56   H12   S    
C28   H28   S    
C18   C19   A    
C14   H5    S    
C9    C66   A    
C13   C14   A    
C1    H1    S    
N1    N7    A    
N6    N16   A    
C60   H36   S    
C19   C20   A    
N3    N5    A    
C26   H10   S    
C32   C41   S    
C32   C38   A    
C4    C12   A    
C61   H39   S    
C54   H30   S    
C30   H14   S    
C52   N5    A    
C28   C34   A    
C59   C60   S    
C21   C22   A    
C5    N15   A    
C1    N1    A    
C64   H23   S    
C49   H25   S    
C41   H21   S    
C1    C63   A    
C44   C46   A    
N15   Ni3   S    
N3    Ni4   S    
C22   C34   S    
C23   C47   S    
C4    N16   A    
N8    Ni1   S    
C9    C57   S    
C5    C7    A    
C5    H45   S    
C25   C26   A    
C21   H8    S    
C13   C24   S    
C16   N2    A    
C25   H9    S    
C43   C44   A    
C62   C63   A    
C41   H20   S    
C28   N3    A    
C10   C17   A    
N7    Ni3   S    
C47   C48   A    
C29   H13   S    
N14   Ni4   S    
C55   H31   S    
C16   H16   S    
N12   Ni2   S    
C51   C58   A    
C42   C48   A    
C62   N7    A    
C42   C50   S    
C62   H40   S    
C45   N8    A    
C48   C49   S    
C8    C64   A    
C18   H7    S    
C7    C19   S    
C6    C43   S    
C55   C57   A    
C66   N12   A    
C8    C37   S    
C39   H19   S    
C49   H26   S    
C60   H35   S    
C17   H46   S    
N10   Ni3   S    
N5    Ni1   S    
C15   C17   A    
C54   C55   A    
C52   H38   S    
C61   N6    A    
C2    C8    A    
C65   H34   S    
C66   H42   S    
C27   H11   S    
N16   Ni2   S    
N2    N4    A    
C11   H3    S    
C50   H27   S    
C46   H24   S    
C10   H2    S    
C16   C23   A    
C34   C52   A    
C56   N9    A    
N10   N13   A    
C58   C59   S    
C32   C33   A    
C40   H37   S    
C12   C61   A    
C11   C13   A    
C57   C58   A    
C38   C39   S    
C64   N10   A    
C59   H33   S    
C33   C35   A    
C22   C24   A    
C65   N11   A    
C9    C65   A    
C46   C47   A    
N6    Ni4   S    
C10   C11   A    
C2    N13   A    
N13   Ni1   S    
N4    Ni2   S    
C20   C21   A    
C49   C50   S    
C42   C43   A    
C59   H32   S    
C14   C15   A    
C51   C60   S    
C3    H44   S    
C51   C53   A    
C12   C33   S    
C44   H22   S    
C45   H41   S    
C20   C31   S    
