data_mof_unit_pretest_1171.cif
_audit_creation_date              2012-12-11T14:03:57-0500
_audit_creation_method            fapswitch 2.2
_symmetry_space_group_name_H-M    P1
_symmetry_Int_Tables_number       1
_space_group_crystal_system       triclinic
_cell_length_a                    18.816653
_cell_length_b                    11.085313
_cell_length_c                    18.703778
_cell_angle_alpha                 89.603189
_cell_angle_beta                  90.343841
_cell_angle_gamma                 90.173505
_cell_volume                      3901.21155921

loop_
_atom_site_label
_atom_site_type_symbol
_atom_type_description
_atom_site_fract_x
_atom_site_fract_y
_atom_site_fract_z
_atom_type_partial_charge
C1    C     C_R   0.226309 0.514465 0.637365 0.565146
C2    C     C_R   0.759473 0.465915 0.352546 0.565763
C3    C     C_R   0.726309 0.014465 0.637365 0.565144
C4    C     C_R   0.259473 0.965915 0.352546 0.565768
C5    C     C_2   0.277559 0.822867 0.532542 -0.159661
C6    C     C_2   0.689385 0.902026 0.449984 -0.163362
C7    C     C_2   0.777557 0.322865 0.532542 -0.159659
C8    C     C_2   0.189384 0.402029 0.449983 -0.163360
C9    C     C_R   0.001241 0.656004 0.428800 -0.017262
C10   C     C_R   0.988063 0.671539 0.578201 -0.025727
C11   C     C_R   0.501243 0.156005 0.428799 -0.017263
C12   C     C_R   0.488064 0.171537 0.578200 -0.025726
C13   C     C_R   0.033888 0.869486 0.423669 -0.141826
C14   C     C_R   0.001202 0.892766 0.567542 -0.114250
C15   C     C_R   0.533889 0.369487 0.423669 -0.141823
C16   C     C_R   0.501202 0.392765 0.567542 -0.114251
C17   C     C_R   0.036516 0.985064 0.454728 0.286171
C18   C     C_R   0.022315 0.995308 0.528250 0.287274
C19   C     C_R   0.536520 0.485064 0.454729 0.286167
C20   C     C_R   0.522317 0.495307 0.528251 0.287278
C21   C     C_R   0.000243 0.777457 0.536768 -0.040234
C22   C     C_R   0.011513 0.767790 0.462639 -0.043861
C23   C     C_R   0.500244 0.277456 0.536768 -0.040235
C24   C     C_R   0.511513 0.267791 0.462639 -0.043858
C25   C     C_R   0.970489 0.564417 0.543303 0.015199
C26   C     C_R   0.991026 0.551190 0.472014 0.022189
C27   C     C_R   0.470493 0.064414 0.543301 0.015199
C28   C     C_R   0.491030 0.051189 0.472013 0.022189
C29   C     C_R   0.941007 0.465345 0.580616 -0.089366
C30   C     C_R   0.999285 0.432856 0.446193 -0.095809
C31   C     C_R   0.441011 0.965341 0.580612 -0.089369
C32   C     C_R   0.499290 0.932856 0.446190 -0.095806
C33   C     C_R   0.941786 0.351111 0.550669 -0.107796
C34   C     C_R   0.972936 0.334410 0.484358 -0.103513
C35   C     C_R   0.441791 0.851108 0.550663 -0.107798
C36   C     C_R   0.472941 0.834409 0.484353 -0.103506
C37   C     C_2   0.258528 0.936431 0.913828 -0.134480
C38   C     C_2   0.741370 0.938392 0.086470 -0.132520
C39   C     C_2   0.758524 0.436426 0.913831 -0.134484
C40   C     C_2   0.241369 0.438385 0.086468 -0.132526
C41   C     C_2   0.273587 0.996866 0.065436 -0.060635
C42   C     C_2   0.726700 0.996709 0.934471 -0.067679
C43   C     C_2   0.773584 0.496867 0.065435 -0.060590
C44   C     C_2   0.226697 0.496715 0.934471 -0.067708
C45   C     C_R   0.226818 0.872684 0.646710 0.541441
C46   C     C_R   0.771197 0.878758 0.349972 0.558530
C47   C     C_R   0.726817 0.372684 0.646709 0.541438
C48   C     C_R   0.271197 0.378758 0.349972 0.558534
C49   C     C_2   0.230682 0.060137 0.020996 0.230491
C50   C     C_2   0.769844 0.060648 0.978113 0.231824
C51   C     C_2   0.730676 0.560132 0.020998 0.230543
C52   C     C_2   0.269843 0.560646 0.978114 0.231792
C53   C     C_2   0.222614 0.026336 0.944689 -0.161191
C54   C     C_2   0.778439 0.026712 0.054441 -0.156722
C55   C     C_2   0.722616 0.526341 0.944687 -0.161211
C56   C     C_2   0.278435 0.526710 0.054442 -0.156718
C57   C     C_2   0.010157 0.654795 0.926253 -0.096951
C58   C     C_2   0.009975 0.663973 0.083514 -0.103757
C59   C     C_2   0.510163 0.154794 0.926255 -0.096947
C60   C     C_2   0.509979 0.163975 0.083515 -0.103762
C61   C     C_2   0.022958 0.564631 0.046015 -0.168808
C62   C     C_2   0.036171 0.568446 0.969958 -0.162570
C63   C     C_2   0.522974 0.064635 0.046020 -0.168807
C64   C     C_2   0.536184 0.068451 0.969961 -0.162562
C65   C     C_R   0.026028 0.656556 0.647243 0.531836
C66   C     C_R   0.971960 0.653465 0.354781 0.537812
C67   C     C_R   0.526029 0.156556 0.647243 0.531837
C68   C     C_R   0.471961 0.153465 0.354780 0.537810
C69   C     C_R   0.223728 0.520727 0.858133 0.609236
C70   C     C_R   0.776242 0.520791 0.141724 0.607536
C71   C     C_R   0.723729 0.020724 0.858134 0.609240
C72   C     C_R   0.276242 0.020792 0.141724 0.607534
C73   C     C_R   0.229319 0.876779 0.851165 0.574837
C74   C     C_R   0.770656 0.877399 0.148934 0.569129
C75   C     C_R   0.729319 0.376780 0.851165 0.574836
C76   C     C_R   0.270657 0.377398 0.148934 0.569137
C77   C     C_R   0.031512 0.651208 0.852180 0.546192
C78   C     C_R   0.972067 0.652892 0.150297 0.544229
C79   C     C_R   0.531513 0.151208 0.852181 0.546191
C80   C     C_R   0.472068 0.152892 0.150298 0.544223
C81   C     C_2   0.246709 0.906192 0.574356 -0.110084
C82   C     C_2   0.743573 0.943678 0.410926 -0.119759
C83   C     C_2   0.746709 0.406191 0.574356 -0.110084
C84   C     C_2   0.243573 0.443679 0.410926 -0.119756
C85   C     C_2   0.241274 0.904089 0.418313 -0.113283
C86   C     C_2   0.734931 0.973269 0.564477 -0.117130
C87   C     C_2   0.741273 0.404089 0.418312 -0.113285
C88   C     C_2   0.234931 0.473269 0.564477 -0.117128
C89   C     C_2   0.289665 0.844874 0.456591 -0.165633
C90   C     C_2   0.678772 0.946954 0.522739 -0.165673
C91   C     C_2   0.789664 0.344872 0.456590 -0.165632
C92   C     C_2   0.178772 0.446956 0.522738 -0.165675
Cr1   Cr    Cr6+3 0.113970 0.508630 0.747920 0.981342
Cr2   Cr    Cr6+3 0.886030 0.508630 0.252080 0.997814
Cr3   Cr    Cr6+3 0.613970 0.008630 0.747920 0.981333
Cr4   Cr    Cr6+3 0.386030 0.008630 0.252080 0.997820
Cr5   Cr    Cr6+3 0.269200 0.666740 0.749850 1.011826
Cr6   Cr    Cr6+3 0.730800 0.666740 0.250150 1.015491
Cr7   Cr    Cr6+3 0.769200 0.166740 0.749850 1.011852
Cr8   Cr    Cr6+3 0.230800 0.166740 0.250150 1.015454
Cr9   Cr    Cr6+3 0.112300 0.820070 0.749800 0.983119
Cr10  Cr    Cr6+3 0.887700 0.820070 0.250200 0.993014
Cr11  Cr    Cr6+3 0.612300 0.320070 0.749800 0.983118
Cr12  Cr    Cr6+3 0.387700 0.320070 0.250200 0.993019
H1    H     H_    0.179668 0.068821 0.914937 0.144487
H2    H     H_    0.822556 0.067295 0.083191 0.144017
H3    H     H_    0.679680 0.568842 0.914927 0.144449
H4    H     H_    0.322549 0.567298 0.083192 0.144049
H5    H     H_    0.306735 0.923827 0.047358 0.060865
H6    H     H_    0.694258 0.922466 0.953206 0.051044
H7    H     H_    0.806735 0.423839 0.047358 0.060808
H8    H     H_    0.194247 0.422480 0.953205 0.051095
H9    H     H_    0.305553 0.897305 0.937530 0.129144
H10   H     H_    0.693142 0.901535 0.063840 0.122852
H11   H     H_    0.805540 0.397280 0.937541 0.129151
H12   H     H_    0.193145 0.401516 0.063838 0.122903
H13   H     H_    0.018843 0.475445 0.070072 0.145774
H14   H     H_    0.065678 0.492458 0.949043 0.143528
H15   H     H_    0.518871 0.975450 0.070080 0.145787
H16   H     H_    0.565696 0.992470 0.949045 0.143509
H17   H     H_    0.295349 0.736946 0.554259 0.145264
H18   H     H_    0.656230 0.828137 0.431390 0.175492
H19   H     H_    0.795347 0.236945 0.554259 0.145263
H20   H     H_    0.156227 0.328142 0.431388 0.175498
H21   H     H_    0.189569 0.923344 0.441186 0.130514
H22   H     H_    0.788850 0.965287 0.544524 0.117663
H23   H     H_    0.689569 0.423344 0.441186 0.130518
H24   H     H_    0.288851 0.465283 0.544524 0.117662
H25   H     H_    0.050769 0.857387 0.369096 0.108497
H26   H     H_    0.982946 0.904336 0.621787 0.134993
H27   H     H_    0.550770 0.357386 0.369096 0.108488
H28   H     H_    0.482945 0.404335 0.621786 0.134992
H29   H     H_    0.026640 0.416434 0.396716 0.132075
H30   H     H_    0.919887 0.475828 0.633985 0.124062
H31   H     H_    0.526646 0.916438 0.396713 0.132067
H32   H     H_    0.419891 0.975821 0.633981 0.124064
H33   H     H_    0.920510 0.274903 0.580029 0.152080
H34   H     H_    0.974596 0.245648 0.461564 0.202920
H35   H     H_    0.420514 0.774899 0.580023 0.152081
H36   H     H_    0.474602 0.745648 0.461557 0.202913
O1    O     O_R   0.043230 0.549300 0.667990 -0.530976
O2    O     O_R   0.956770 0.549300 0.332010 -0.526112
O3    O     O_R   0.543230 0.049300 0.667990 -0.530976
O4    O     O_R   0.456770 0.049300 0.332010 -0.526113
O5    O     O_R   0.262920 0.788600 0.824420 -0.479119
O6    O     O_R   0.737080 0.788600 0.175580 -0.483176
O7    O     O_R   0.762920 0.288600 0.824420 -0.479099
O8    O     O_R   0.237080 0.288600 0.175580 -0.483184
O9    O     O_R   0.167530 0.905110 0.830340 -0.523305
O10   O     O_R   0.832470 0.905110 0.169660 -0.525717
O11   O     O_R   0.667530 0.405110 0.830340 -0.523303
O12   O     O_R   0.332470 0.405110 0.169660 -0.525718
O13   O     O_R   0.054010 0.748440 0.822860 -0.494888
O14   O     O_R   0.945990 0.748440 0.177140 -0.504017
O15   O     O_R   0.554010 0.248440 0.822860 -0.494887
O16   O     O_R   0.445990 0.248440 0.177140 -0.504017
O17   O     O_3   0.165160 0.665150 0.749190 -0.278618
O18   O     O_3   0.834840 0.665150 0.250810 -0.261977
O19   O     O_3   0.665160 0.165150 0.749190 -0.278618
O20   O     O_3   0.334840 0.165150 0.250810 -0.261976
O21   O     O_R   0.178620 0.457600 0.674100 -0.494487
O22   O     O_R   0.821380 0.457600 0.325900 -0.488850
O23   O     O_R   0.678620 0.957600 0.674100 -0.494488
O24   O     O_R   0.321380 0.957600 0.325900 -0.488848
O25   O     O_R   0.284680 0.542100 0.669460 -0.518562
O26   O     O_R   0.715320 0.542100 0.330540 -0.512294
O27   O     O_R   0.784680 0.042100 0.669460 -0.518562
O28   O     O_R   0.215320 0.042100 0.330540 -0.512288
O29   O     O_R   0.262860 0.790390 0.676650 -0.518182
O30   O     O_R   0.737140 0.790390 0.323350 -0.500259
O31   O     O_R   0.762860 0.290390 0.676650 -0.518181
O32   O     O_R   0.237140 0.290390 0.323350 -0.500248
O33   O     O_R   0.167460 0.907030 0.670940 -0.539917
O34   O     O_R   0.832540 0.907030 0.329060 -0.519874
O35   O     O_R   0.667460 0.407030 0.670940 -0.539921
O36   O     O_R   0.332540 0.407030 0.329060 -0.519868
O37   O     O_R   0.053950 0.750220 0.675100 -0.506900
O38   O     O_R   0.946050 0.750220 0.324900 -0.499253
O39   O     O_R   0.553950 0.250220 0.675100 -0.506900
O40   O     O_R   0.446050 0.250220 0.324900 -0.499249
O41   O     O_R   0.043300 0.547370 0.827390 -0.529299
O42   O     O_R   0.956700 0.547370 0.172610 -0.527350
O43   O     O_R   0.543300 0.047370 0.827390 -0.529298
O44   O     O_R   0.456700 0.047370 0.172610 -0.527349
O45   O     O_R   0.178690 0.455820 0.821860 -0.514681
O46   O     O_R   0.821310 0.455820 0.178140 -0.517212
O47   O     O_R   0.678690 0.955820 0.821860 -0.514700
O48   O     O_R   0.321310 0.955820 0.178140 -0.517193
O49   O     O_R   0.284750 0.540170 0.828860 -0.471942
O50   O     O_R   0.715250 0.540170 0.171140 -0.487018
O51   O     O_R   0.784750 0.040170 0.828860 -0.471910
O52   O     O_R   0.215250 0.040170 0.171140 -0.487102
H37   H     H_    0.339523 0.817491 0.433091 0.152819
H38   H     H_    0.625166 0.951890 0.543358 0.157987
H39   H     H_    0.839521 0.317488 0.433091 0.152815
H40   H     H_    0.125164 0.451896 0.543357 0.157984
H41   H     H_    0.017465 0.753355 0.060537 0.102729
H42   H     H_    0.980590 0.731612 0.945799 0.093811
H43   H     H_    0.517460 0.253358 0.060536 0.102748
H44   H     H_    0.480591 0.231605 0.945801 0.093797
H45   H     H_    0.229074 0.992208 0.552681 0.102377
H46   H     H_    0.774156 0.021231 0.428993 0.110146
H47   H     H_    0.729074 0.492207 0.552681 0.102380
H48   H     H_    0.274156 0.521230 0.428994 0.110146
O53   O     O_3   0.055212 0.088969 0.416392 -0.558404
C93   C     C_3   0.035989 0.082124 0.343004 -0.022571
H49   H     H_    0.982684 0.039683 0.335228 0.134831
H50   H     H_    0.076746 0.030544 0.313398 0.153635
C94   C     C_3   0.032681 0.207654 0.310084 -0.362330
H51   H     H_    0.082080 0.258694 0.322298 0.165344
H52   H     H_    0.026708 0.200708 0.251229 0.078656
H53   H     H_    0.985641 0.256174 0.330521 0.131367
O54   O     O_3   0.022080 0.108270 0.559512 -0.576583
C95   C     C_3   0.072123 0.112500 0.616121 -0.013082
H54   H     H_    0.126847 0.103293 0.594774 0.157711
H55   H     H_    0.061928 0.041995 0.657241 0.150015
C96   C     C_3   0.067001 0.232636 0.654246 -0.340060
H56   H     H_    0.013675 0.242544 0.678597 0.126644
H57   H     H_    0.107823 0.237223 0.697271 0.122136
H58   H     H_    0.076038 0.307425 0.615934 0.188930
O55   O     O_3   0.555225 0.588969 0.416397 -0.558410
C97   C     C_3   0.536017 0.582127 0.343005 -0.022562
H59   H     H_    0.482707 0.539708 0.335219 0.134806
H60   H     H_    0.576772 0.530528 0.313407 0.153659
C98   C     C_3   0.532735 0.707658 0.310080 -0.362298
H61   H     H_    0.582132 0.758687 0.322319 0.165379
H62   H     H_    0.526793 0.700714 0.251221 0.078683
H63   H     H_    0.485688 0.756189 0.330494 0.131333
O56   O     O_3   0.522082 0.608269 0.559512 -0.576581
C99   C     C_3   0.572123 0.612499 0.616123 -0.013079
H64   H     H_    0.626848 0.603292 0.594778 0.157714
H65   H     H_    0.561928 0.541992 0.657243 0.150015
C100  C     C_3   0.566999 0.732633 0.654249 -0.340062
H66   H     H_    0.513671 0.742541 0.678596 0.126640
H67   H     H_    0.607819 0.737219 0.697276 0.122130
H68   H     H_    0.576038 0.807423 0.615938 0.188931
O57   O     O_3   0.192109 0.156249 0.048545 -0.541001
C101  C     C_3   0.118962 0.147403 0.030977 -0.005468
H69   H     H_    0.100745 0.052502 0.022727 0.125075
H70   H     H_    0.108014 0.201256 0.981805 0.118104
C102  C     C_3   0.075204 0.198641 0.091683 -0.354875
H71   H     H_    0.090768 0.293432 0.102319 0.142944
H72   H     H_    0.017884 0.195933 0.077331 0.071806
H73   H     H_    0.083833 0.143950 0.140880 0.166452
O58   O     O_3   0.808806 0.156708 0.949727 -0.542909
C103  C     C_3   0.882391 0.143333 0.964067 -0.004293
H74   H     H_    0.899320 0.046872 0.965179 0.128573
H75   H     H_    0.895799 0.186070 0.016011 0.117325
C104  C     C_3   0.925099 0.207029 0.906043 -0.348588
H76   H     H_    0.913738 0.305169 0.905716 0.145409
H77   H     H_    0.982775 0.194128 0.916311 0.072774
H78   H     H_    0.911641 0.169098 0.852850 0.173348
O59   O     O_3   0.692118 0.656255 0.048553 -0.540981
C105  C     C_3   0.618984 0.647555 0.030907 -0.005515
H79   H     H_    0.600724 0.552710 0.022541 0.125026
H80   H     H_    0.608113 0.701566 0.981777 0.118135
C106  C     C_3   0.575194 0.698667 0.091630 -0.354935
H81   H     H_    0.590875 0.793313 0.102475 0.143172
H82   H     H_    0.517907 0.696288 0.077177 0.071809
H83   H     H_    0.583649 0.643693 0.140733 0.166236
O60   O     O_3   0.308816 0.656698 0.949734 -0.542913
C107  C     C_3   0.382405 0.643225 0.964020 -0.004231
H84   H     H_    0.399302 0.546745 0.965035 0.128628
H85   H     H_    0.395861 0.685818 0.015995 0.117285
C108  C     C_3   0.425099 0.707033 0.906030 -0.348601
H86   H     H_    0.413789 0.805195 0.905821 0.145350
H87   H     H_    0.482778 0.694012 0.916240 0.072781
H88   H     H_    0.411577 0.669286 0.852803 0.173396

loop_
_geom_bond_atom_site_label_1
_geom_bond_atom_site_label_2
_ccdc_geom_bond_type
C7    C83   D    
C49   C53   S    
C58   H41   S    
Cr3   O3    S    
O60   C107  S    
C6    C82   D    
Cr7   O19   S    
C57   H42   S    
C86   H22   S    
C14   C18   A    
Cr9   O33   S    
C35   C36   A    
C19   O55   S    
C53   H1    S    
Cr6   O50   S    
C67   O3    A    
C94   H53   S    
C107  C108  S    
C87   H23   S    
C3    O27   A    
C57   C62   D    
Cr12  O36   S    
C79   O43   A    
C40   H12   S    
O53   C93   S    
C96   H58   S    
C15   C19   A    
C52   O60   S    
C66   O38   A    
C101  C102  S    
C59   C64   D    
C50   C54   S    
C43   H7    S    
C60   C63   D    
Cr3   O19   S    
C32   C36   A    
C14   C21   A    
Cr12  O20   S    
C106  H81   S    
C87   C91   D    
C14   H26   S    
O59   C105  S    
C38   H10   S    
C95   H55   S    
C9    C22   A    
Cr11  O39   S    
Cr8   O32   S    
C4    O24   A    
C76   O12   A    
C101  H70   S    
C5    H17   S    
C11   C24   A    
C98   H63   S    
C5    C81   D    
C99   C100  S    
C17   C18   A    
C102  H71   S    
Cr4   O48   S    
C9    C66   S    
C56   H4    S    
C105  H80   S    
C60   H43   S    
C77   O13   A    
C46   C82   S    
C52   C56   S    
C85   H21   S    
C39   C55   D    
Cr6   O18   S    
C29   C33   A    
C33   H33   S    
C43   C70   S    
C40   C56   D    
C90   H38   S    
C77   O41   A    
C23   C24   A    
C46   O34   A    
C48   C84   S    
C8    C92   S    
C39   C75   S    
C50   O58   S    
C100  H66   S    
C2    O26   A    
C34   H34   S    
C61   C62   S    
Cr11  O11   S    
C37   C53   D    
C44   C52   D    
C58   C61   D    
Cr5   O49   S    
C29   H30   S    
Cr9   O17   S    
Cr2   O18   S    
C48   O32   A    
C21   C22   A    
C3    C86   S    
Cr10  O18   S    
C2    C87   S    
Cr8   O52   S    
C58   C78   S    
Cr1   O41   S    
Cr4   O44   S    
C41   C49   D    
C100  H68   S    
C9    C26   A    
C80   O16   A    
Cr7   O27   S    
Cr11  O19   S    
C10   C21   A    
C25   C29   A    
C98   H62   S    
C12   C67   S    
C103  H75   S    
C104  H77   S    
C108  H86   S    
C62   H14   S    
C30   C34   A    
C12   C27   A    
Cr3   O47   S    
Cr2   O2    S    
C88   C92   D    
C28   C32   A    
C49   O57   S    
C86   C90   D    
C59   C79   S    
C108  H87   S    
C54   H2    S    
C93   H49   S    
C8    H20   S    
C12   C23   A    
C4    C85   S    
Cr6   O6    S    
C97   C98   S    
C75   O7    A    
C96   H56   S    
O54   C95   S    
C27   C31   A    
C68   O40   A    
C40   C76   S    
C73   O5    A    
C102  H72   S    
Cr5   O17   S    
C101  H69   S    
Cr1   O17   S    
O56   C99   S    
C57   C77   S    
C105  H79   S    
Cr4   O4    S    
O55   C97   S    
C65   O1    A    
Cr8   O20   S    
Cr8   O8    S    
C94   H51   S    
C38   C54   D    
Cr1   O21   S    
C59   H44   S    
C16   C20   A    
C30   H29   S    
C89   H37   S    
Cr11  O35   S    
C98   H61   S    
C104  H76   S    
C15   H27   S    
C44   C69   S    
Cr12  O16   S    
C99   H65   S    
C100  H67   S    
Cr6   O26   S    
C46   O30   A    
C42   C50   D    
C41   C72   S    
C44   H8    S    
C10   C25   A    
C83   H47   S    
C15   C24   A    
Cr4   O20   S    
Cr10  O10   S    
C26   C30   A    
C16   C23   A    
C47   C83   S    
C72   O48   A    
Cr10  O38   S    
C31   C35   A    
C18   O54   S    
C96   H57   S    
C6    H18   S    
Cr9   O13   S    
C69   O49   A    
C51   O59   S    
C69   O45   A    
C7    C91   S    
Cr1   O1    S    
C11   C68   S    
C70   O50   A    
C82   H46   S    
C38   C74   S    
C10   C65   S    
Cr11  O15   S    
C37   C73   S    
C103  H74   S    
C60   C80   S    
C104  H78   S    
C85   C89   D    
C20   O56   S    
C45   O33   A    
Cr3   O43   S    
C73   O9    A    
C97   H60   S    
C8    C84   D    
C4    O28   A    
Cr5   O5    S    
C74   O6    A    
C1    O25   A    
C78   O14   A    
Cr12  O12   S    
Cr2   O46   S    
C80   O44   A    
C71   O47   A    
C31   H32   S    
C92   H40   S    
C95   C96   S    
C45   O29   A    
C32   H31   S    
C47   O31   A    
C45   C81   S    
C107  H84   S    
C66   O2    A    
C35   H35   S    
C3    O23   A    
Cr10  O34   S    
C79   O15   A    
Cr2   O42   S    
C91   H39   S    
C39   H11   S    
C64   H16   S    
C13   C17   A    
Cr3   O23   S    
Cr8   O28   S    
C102  H73   S    
C71   O51   A    
C106  H83   S    
C19   C20   A    
C17   O53   S    
C25   C26   A    
Cr5   O29   S    
Cr7   O7    S    
C88   H24   S    
C61   H13   S    
C6    C90   S    
Cr10  O14   S    
Cr7   O51   S    
C93   C94   S    
C43   C51   D    
Cr12  O40   S    
C65   O37   A    
C11   C28   A    
C1    C88   S    
Cr5   O25   S    
C95   H54   S    
Cr9   O9    S    
C42   C71   S    
C94   H52   S    
C33   C34   A    
C13   C22   A    
C68   O4    A    
C51   C55   S    
C36   H36   S    
C75   O11   A    
C42   H6    S    
C99   H64   S    
C16   H28   S    
C108  H88   S    
O57   C101  S    
C67   O39   A    
Cr9   O37   S    
C70   O46   A    
C47   O35   A    
C1    O21   A    
C63   C64   S    
Cr6   O30   S    
Cr4   O24   S    
C105  C106  S    
C107  H85   S    
C37   H9    S    
C76   O8    A    
C63   H15   S    
C106  H82   S    
C27   C28   A    
C13   H25   S    
C74   O10   A    
C41   H5    S    
C55   H3    S    
C78   O42   A    
C84   H48   S    
O58   C103  S    
C93   H50   S    
C97   H59   S    
C72   O52   A    
C5    C89   S    
Cr2   O22   S    
C81   H45   S    
Cr7   O31   S    
C7    H19   S    
C2    O22   A    
C48   O36   A    
C103  C104  S    
Cr1   O45   S    
