data_mof_unit_pretest_1316.cif
_audit_creation_date              2012-12-10T17:32:18-0500
_audit_creation_method            fapswitch 2.2
_symmetry_space_group_name_H-M    P1
_symmetry_Int_Tables_number       1
_space_group_crystal_system       triclinic
_cell_length_a                    12.351246
_cell_length_b                    13.255344
_cell_length_c                    15.09928
_cell_angle_alpha                 76.219632
_cell_angle_beta                  102.007021
_cell_angle_gamma                 116.6609
_cell_volume                      2131.01026139

loop_
_atom_site_label
_atom_site_type_symbol
_atom_type_description
_atom_site_fract_x
_atom_site_fract_y
_atom_site_fract_z
_atom_type_partial_charge
C1    C     C_R   0.854994 0.286985 0.505715 0.799885
C2    C     C_R   0.943487 0.556484 0.070805 0.086770
C3    C     C_R   0.110414 0.375988 0.093937 -0.220151
C4    C     C_R   0.105194 0.369500 0.002447 -0.095698
C5    C     C_R   0.044605 0.423424 0.931906 -0.003244
C6    C     C_R   0.996641 0.491392 0.954956 0.007745
C7    C     C_R   0.944378 0.554105 0.885810 0.106722
C8    C     C_R   0.892527 0.617579 0.909440 -0.168603
C9    C     C_R   0.890568 0.617472 0.001466 -0.180090
C10   C     C_R   0.030054 0.410885 0.839309 0.334731
C11   C     C_R   0.991148 0.485056 0.769889 -0.206187
C12   C     C_R   0.996375 0.493781 0.671829 0.856842
C13   C     C_R   0.946491 0.553959 0.794086 -0.284472
C14   C     C_R   0.269918 0.031002 0.404561 -0.182404
C15   C     C_R   0.228816 0.835349 0.474350 -0.071054
C16   C     C_R   0.820022 0.083251 0.545867 -0.184157
C17   C     C_R   0.743691 0.966927 0.556008 0.034525
C18   C     C_R   0.618564 0.930512 0.530356 -0.218769
C19   C     C_R   0.567829 0.010227 0.489879 0.070641
C20   C     C_R   0.648398 0.127251 0.468094 0.076223
C21   C     C_R   0.439814 0.977751 0.469545 0.087907
C22   C     C_R   0.395554 0.060301 0.421483 0.154376
C23   C     C_R   0.145279 0.713519 0.488629 0.839349
C24   C     C_R   0.476994 0.170571 0.389129 -0.227390
C25   C     C_R   0.601437 0.202669 0.409831 -0.186663
C26   C     C_R   0.354054 0.866133 0.496866 -0.252781
C27   C     C_R   0.187050 0.919208 0.431546 -0.112780
C28   C     C_R   0.773563 0.164692 0.504268 -0.128359
C29   C     C_R   0.338475 0.314302 0.638474 -0.277005
C30   C     C_R   0.753126 0.650252 0.375788 0.507937
C31   C     C_R   0.654511 0.679392 0.354963 -0.256696
C32   C     C_R   0.556161 0.623163 0.402983 -0.290356
C33   C     C_R   0.551645 0.534015 0.475023 0.015066
C34   C     C_R   0.999456 0.499542 0.328808 0.841223
C35   C     C_R   0.653399 0.503262 0.497062 0.217413
C36   C     C_R   0.447499 0.473777 0.524478 -0.007675
C37   C     C_R   0.443063 0.379596 0.593404 0.146096
C38   C     C_R   0.542472 0.351053 0.616228 -0.258705
C39   C     C_R   0.646084 0.412784 0.570444 -0.151929
C40   C     C_R   0.345864 0.502428 0.507452 0.001071
C41   C     C_R   0.239893 0.343817 0.615695 0.135617
C42   C     C_R   0.941931 0.555662 0.163053 -0.201075
C43   C     C_R   0.998852 0.498151 0.232202 -0.082567
C44   C     C_R   0.056506 0.439604 0.208955 -0.238170
C45   C     C_R   0.055471 0.436490 0.117175 0.112478
C46   C     C_R   0.998888 0.495085 0.047621 0.091143
Cu1   Cu    Cu3+1 0.098270 0.475420 0.521130 0.990540
Cu2   Cu    Cu3+1 0.901730 0.524580 0.478870 0.985829
H1    H     H_    0.897762 0.600870 0.180818 0.209642
H2    H     H_    0.444421 0.232486 0.347514 0.146910
H3    H     H_    0.235785 0.094190 0.369117 0.149045
H4    H     H_    0.382190 0.800884 0.535764 0.156760
H5    H     H_    0.915904 0.110071 0.571518 0.178666
H6    H     H_    0.564068 0.839341 0.540797 0.133649
H7    H     H_    0.659371 0.286581 0.377189 0.176157
H8    H     H_    0.157264 0.290378 0.647209 0.209706
H9    H     H_    0.540449 0.280220 0.670551 0.159169
H10   H     H_    0.332162 0.239862 0.689935 0.164283
H11   H     H_    0.100226 0.394577 0.262341 0.158153
H12   H     H_    0.342232 0.574347 0.458019 0.131364
H13   H     H_    0.484470 0.651656 0.380325 0.161311
H14   H     H_    0.652923 0.747973 0.299351 0.213134
H15   H     H_    0.718094 0.386090 0.594947 0.201892
H16   H     H_    0.156687 0.332785 0.146626 0.153411
H17   H     H_    0.151418 0.323822 0.987843 0.215192
H18   H     H_    0.912702 0.607670 0.741123 0.192149
H19   H     H_    0.852243 0.666192 0.856739 0.165874
H20   H     H_    0.848507 0.665662 0.018420 0.182554
H21   H     H_    0.090748 0.897864 0.416859 0.220689
N1    N     N_R   0.246280 0.438190 0.553160 -0.199768
N2    N     N_R   0.754320 0.561190 0.447410 -0.264963
O1    O     O_R   0.972510 0.318130 0.526570 -0.559601
O2    O     O_R   0.806530 0.359650 0.490890 -0.625948
O3    O     O_R   0.082980 0.479210 0.647590 -0.512728
O4    O     O_R   0.917000 0.520730 0.611900 -0.614102
O5    O     O_R   0.193470 0.640350 0.509110 -0.603989
O6    O     O_R   0.027490 0.681870 0.473430 -0.530288
O7    O     O_R   0.083000 0.479270 0.388100 -0.600634
O8    O     O_R   0.917020 0.520790 0.352410 -0.556126
C47   C     C_1   0.793494 0.884202 0.595646 0.262232
N3    N     N_1   0.833356 0.817674 0.627331 -0.289947
S1    S     S_3+6 0.864742 0.741981 0.298707 0.004037
O9    O     O_2   0.898872 0.862815 0.309446 -0.294622
O10   O     O_2   0.980105 0.728290 0.306053 -0.284113
O11   O     O_3   0.794576 0.728151 0.191177 -0.524331
H22   H     H_    0.737539 0.646197 0.194187 0.308039
S2    S     S_3+6 0.040806 0.291325 0.813709 -0.015137
O12   O     O_2   0.172326 0.322450 0.808141 -0.298379
O13   O     O_2   0.995651 0.189574 0.888323 -0.278364
O14   O     O_3   0.956701 0.252783 0.714653 -0.542761
H23   H     H_    0.871621 0.230830 0.724548 0.328633

loop_
_geom_bond_atom_site_label_1
_geom_bond_atom_site_label_2
_ccdc_geom_bond_type
C16   C28   A    
C21   C26   A    
C40   H12   S    
C12   O3    A    
C19   C20   A    
C31   H14   S    
C23   O5    A    
S2    O12   D    
C30   N2    A    
C7    C8    A    
C41   H8    S    
O11   H22   S    
C2    C46   A    
C40   N1    A    
Cu2   O8    S    
C36   C37   A    
C19   C21   A    
C32   H13   S    
C14   H3    S    
C4    H17   S    
C20   C25   A    
C44   H11   S    
C33   C36   A    
C18   C19   A    
C16   H5    S    
Cu1   Cu2   S    
C8    C9    A    
C1    C28   S    
C14   C27   A    
C27   H21   S    
C15   C23   S    
C35   N2    A    
C21   C22   A    
Cu2   O4    S    
C13   H18   S    
C24   H2    S    
C38   C39   A    
C10   S2    S    
C1    O1    A    
C36   C40   A    
C24   C25   A    
C16   C17   A    
C15   C26   A    
C20   C28   A    
C45   C46   A    
C3    C45   A    
C17   C47   S    
Cu2   O6    S    
C30   S1    S    
C35   C39   A    
C43   C44   A    
Cu1   N1    S    
C37   C38   A    
C26   H4    S    
C34   O8    A    
C38   H9    S    
C15   C27   A    
C31   C32   A    
C7    C13   A    
C30   C31   A    
C17   C18   A    
C23   O6    A    
S1    O10   D    
S2    O13   D    
C22   C24   A    
S2    O14   S    
C42   C43   A    
Cu2   N2    S    
C3    C4    A    
C44   C45   A    
C6    C46   A    
C29   C41   A    
Cu2   O2    S    
C34   C43   S    
C25   H7    S    
Cu1   O3    S    
C47   N3    T    
Cu1   O5    S    
C11   C12   S    
C6    C7    A    
S1    O11   S    
C39   H15   S    
C1    O2    A    
C32   C33   A    
C14   C22   A    
C9    H20   S    
C5    C10   A    
C34   O7    A    
C11   C13   A    
O14   H23   S    
C5    C6    A    
C2    C42   A    
C33   C35   A    
C3    H16   S    
Cu1   O1    S    
C10   C11   A    
C18   H6    S    
C42   H1    S    
C4    C5    A    
C29   H10   S    
C8    H19   S    
S1    O9    D    
C12   O4    A    
C29   C37   A    
Cu1   O7    S    
C2    C9    A    
C41   N1    A    
