data_mof_unit_pretest_301.cif
_audit_creation_date              2012-12-10T16:59:12-0500
_audit_creation_method            fapswitch 2.2
_symmetry_space_group_name_H-M    P1
_symmetry_Int_Tables_number       1
_space_group_crystal_system       triclinic
_cell_length_a                    7.736954
_cell_length_b                    8.561738
_cell_length_c                    27.584747
_cell_angle_alpha                 90.291391
_cell_angle_beta                  85.163016
_cell_angle_gamma                 94.640314
_cell_volume                      1814.78417022

loop_
_atom_site_label
_atom_site_type_symbol
_atom_type_description
_atom_site_fract_x
_atom_site_fract_y
_atom_site_fract_z
_atom_type_partial_charge
C1    C     C_R   0.546679 0.795123 0.498238 0.999113
C2    C     C_R   0.430684 0.683260 0.130250 -0.008376
C3    C     C_R   0.500724 0.502057 0.647121 -0.137950
C4    C     C_R   0.490930 0.499178 0.353159 -0.146554
C5    C     C_R   0.457282 0.695833 0.026691 0.058009
C6    C     C_R   0.278614 0.449334 0.978331 0.034048
C7    C     C_R   0.302995 0.428467 0.027706 -0.001422
C8    C     C_R   0.477402 0.692298 0.974187 -0.003669
C9    C     C_R   0.380120 0.558771 0.052340 0.048435
C10   C     C_R   0.386835 0.564056 0.951104 0.053140
C11   C     C_R   0.519385 0.822547 0.055646 -0.280354
C12   C     C_R   0.453318 0.204882 0.501116 0.995125
C13   C     C_R   0.152733 0.357509 0.954642 -0.238012
C14   C     C_R   0.492283 0.820979 0.106078 -0.143638
C15   C     C_R   0.164011 0.346749 0.904333 -0.137511
C16   C     C_R   0.501062 0.499065 0.593987 0.902094
C17   C     C_R   0.498474 0.500716 0.406059 0.910581
C18   C     C_R   0.582958 0.803925 0.942562 0.101113
C19   C     C_R   0.266078 0.281191 0.053039 0.095387
C20   C     C_2   0.570843 0.959247 0.497051 -0.353859
C21   C     C_2   0.429191 0.040802 0.501046 -0.346578
C22   C     C_R   0.561650 0.610965 0.822498 0.584184
C23   C     C_R   0.405313 0.546507 0.900070 -0.061953
C24   C     C_R   0.397499 0.394186 0.175334 0.594734
C25   C     C_R   0.325089 0.413162 0.826579 0.597531
C26   C     C_R   0.423869 0.672117 0.180967 0.567367
C27   C     C_R   0.560898 0.385057 0.723757 0.033705
C28   C     C_R   0.594724 0.593959 0.271858 -0.002874
C29   C     C_R   0.576638 0.383894 0.672328 -0.018415
C30   C     C_R   0.608976 0.598589 0.322731 -0.012006
C31   C     C_R   0.410116 0.618378 0.672859 -0.143723
C32   C     C_R   0.354492 0.404938 0.333859 -0.158376
C33   C     C_R   0.388852 0.613683 0.723822 -0.073528
C34   C     C_R   0.386950 0.549276 0.103231 -0.046933
C35   C     C_R   0.322001 0.424044 0.284977 -0.081625
C36   C     C_R   0.465414 0.497936 0.748739 0.136518
C37   C     C_R   0.444454 0.515871 0.253657 0.133375
C38   C     C_2   0.339023 0.746639 0.646425 0.990715
C39   C     C_2   0.246827 0.285962 0.365214 0.969983
C40   C     C_2   0.292062 0.732990 0.751916 0.981499
C41   C     C_2   0.163068 0.344853 0.265847 0.993018
C42   C     C_3   0.742028 0.713951 0.344791 -0.378644
C43   C     C_3   0.923014 0.651716 0.342648 -0.308609
C44   C     C_3   0.050274 0.761183 0.368760 -0.759287
C45   C     C_R   0.535585 0.637267 0.872510 -0.084745
C46   C     C_3   0.675112 0.258767 0.644812 -0.398905
C47   C     C_3   0.871249 0.307201 0.638790 -0.296115
C48   C     C_3   0.969032 0.190526 0.607232 -0.787149
C49   C     C_2   0.736512 0.664705 0.236504 0.965897
C50   C     C_2   0.646235 0.272225 0.752619 0.904420
C51   C     C_3   0.634477 0.973468 0.955760 -0.466262
C52   C     C_3   0.677526 0.089860 0.913002 -0.361655
C53   C     C_3   0.676199 0.258799 0.930542 -0.864831
C54   C     C_3   0.226437 0.122362 0.029647 -0.450684
C55   C     C_3   0.044098 0.047027 0.046336 -0.337282
C56   C     C_R   0.358092 0.404535 0.127022 -0.058085
C57   C     C_3   0.021437 0.878181 0.028264 -0.863587
C58   C     C_R   0.628739 0.759417 0.894428 -0.141823
C59   C     C_R   0.299866 0.272550 0.101906 -0.178483
C60   C     C_R   0.298174 0.433123 0.876889 -0.011420
H1    H     H_    0.014217 0.382231 0.464020 0.212031
H2    H     H_    0.296167 0.987735 0.504674 0.177206
H3    H     H_    0.388070 0.929819 0.600484 0.329693
H4    H     H_    0.007950 0.195758 0.390990 0.337000
H5    H     H_    0.106936 0.777025 0.805097 0.359057
H6    H     H_    0.960364 0.360689 0.225617 0.377062
H7    H     H_    0.062825 0.879627 0.351937 0.293295
H8    H     H_    0.004909 0.770436 0.407895 0.250329
H9    H     H_    0.180316 0.714107 0.365864 0.254214
H10   H     H_    0.913357 0.534640 0.360077 0.275555
H11   H     H_    0.975761 0.639450 0.304327 0.264926
H12   H     H_    0.985849 0.617334 0.536207 0.206033
H13   H     H_    0.748153 0.829866 0.326803 0.257773
H14   H     H_    0.699571 0.742107 0.383016 0.192675
H15   H     H_    0.949217 0.071774 0.623814 0.286319
H16   H     H_    0.922801 0.185925 0.570150 0.253122
H17   H     H_    0.110434 0.227727 0.604120 0.251848
H18   H     H_    0.895234 0.425009 0.621655 0.249783
H19   H     H_    0.923981 0.313667 0.675062 0.249195
H20   H     H_    0.651898 0.144174 0.663693 0.256705
H21   H     H_    0.625001 0.234262 0.608815 0.205998
H22   H     H_    0.880593 0.641918 0.172695 0.356768
H23   H     H_    0.727275 0.829285 0.872178 0.189089
H24   H     H_    0.821015 0.240445 0.801230 0.357657
H25   H     H_    0.542736 0.281142 0.944799 0.269343
H26   H     H_    0.763478 0.280803 0.960068 0.256589
H27   H     H_    0.718609 0.340346 0.899869 0.272505
H28   H     H_    0.809035 0.073328 0.895206 0.221095
H29   H     H_    0.579709 0.071266 0.885764 0.255684
H30   H     H_    0.520509 0.017479 0.976593 0.214380
H31   H     H_    0.749712 0.977803 0.977062 0.212089
H32   H     H_    0.116522 0.806404 0.043791 0.276887
H33   H     H_    0.888873 0.826018 0.040106 0.257626
H34   H     H_    0.281489 0.160254 0.120467 0.198299
H35   H     H_    0.040509 0.874347 0.987916 0.263906
H36   H     H_    0.024388 0.045368 0.086703 0.244032
H37   H     H_    0.942159 0.115180 0.032758 0.210577
H38   H     H_    0.249704 0.121766 0.989624 0.211112
H39   H     H_    0.321387 0.044370 0.041540 0.210639
H40   H     H_    0.535043 0.924195 0.126156 0.205665
H41   H     H_    0.071683 0.267028 0.887280 0.185875
H42   H     H_    0.587907 0.927725 0.042224 0.146630
H43   H     H_    0.048905 0.289239 0.975049 0.162246
H44   H     H_    0.703871 0.012308 0.493414 0.170551
N1    N     N_R   0.454585 0.502705 0.800652 -0.349728
N2    N     N_R   0.418561 0.527592 0.202579 -0.323880
N3    N     N_2   0.950320 0.457960 0.486880 -0.180822
N4    N     N_2   0.049680 0.542040 0.513120 -0.179279
O1    O     O_R   0.389250 0.738570 0.503220 -0.607081
O2    O     O_2   0.416364 0.252624 0.194659 -0.521090
O3    O     O_2   0.429224 0.803702 0.208132 -0.506691
O4    O     O_2   0.221793 0.307618 0.803555 -0.518783
O5    O     O_2   0.184031 0.767158 0.652354 -0.613623
O6    O     O_R   0.450423 0.844057 0.615080 -0.810432
O7    O     O_2   0.318346 0.190927 0.387891 -0.634659
O8    O     O_R   0.065311 0.283122 0.369057 -0.824008
O9    O     O_2   0.326208 0.872491 0.743217 -0.543382
O10   O     O_R   0.162381 0.685437 0.788424 -0.765919
O11   O     O_2   0.125164 0.204943 0.273146 -0.535069
O12   O     O_R   0.610750 0.261430 0.496780 -0.620632
O13   O     O_R   0.061366 0.428920 0.237537 -0.825392
O14   O     O_2   0.804496 0.796349 0.242640 -0.578036
O15   O     O_R   0.786240 0.581719 0.194492 -0.810340
O16   O     O_2   0.600318 0.132381 0.751553 -0.560606
O17   O     O_R   0.774847 0.327572 0.782536 -0.760500
O18   O     O_R   0.678390 0.711630 0.494810 -0.635758
O19   O     O_R   0.321610 0.288370 0.505190 -0.628088
O20   O     O_R   0.355440 0.513440 0.575450 -0.619475
O21   O     O_R   0.644560 0.486560 0.424550 -0.601265
O22   O     O_R   0.644590 0.486500 0.567040 -0.619957
O23   O     O_R   0.355410 0.513500 0.432960 -0.630938
O24   O     O_2   0.689239 0.695817 0.795448 -0.502739
Zn1   Zn    Zn3+2 0.306940 0.517990 0.505620 0.960696
Zn2   Zn    Zn3+2 0.693060 0.482010 0.494380 0.953340

loop_
_geom_bond_atom_site_label_1
_geom_bond_atom_site_label_2
_ccdc_geom_bond_type
C40   O10   S    
C34   C56   A    
C23   C45   A    
C57   H32   S    
C17   O23   A    
C15   C60   A    
C48   H16   S    
C47   H19   S    
C26   N2    A    
C25   N1    A    
C12   O19   A    
H4    O8    S    
C35   C37   A    
C5    C11   A    
N3    Zn2   S    
C51   H30   S    
C38   O6    S    
C11   C14   A    
C27   C29   A    
C54   C55   S    
C49   O15   S    
C33   C36   A    
C32   C39   S    
C41   O13   S    
C3    C29   A    
C25   O4    S    
C51   H31   S    
C12   O12   A    
H3    O6    S    
C18   C58   A    
H12   N4    S    
C1    C20   S    
N3    N4    D    
C31   C33   A    
C53   H26   S    
C59   H34   S    
C13   H43   S    
C16   O22   A    
C27   C50   S    
C1    O1    A    
C2    C34   A    
C40   O9    D    
C57   H33   S    
C48   H15   S    
C52   H29   S    
O22   Zn2   S    
C35   C41   S    
C18   C51   S    
C23   C60   A    
C45   C58   A    
C42   H14   S    
C33   C40   S    
C17   O21   A    
C51   C52   S    
C32   C35   A    
C52   H28   S    
C50   O16   D    
C1    O18   A    
C53   H27   S    
C38   O5    D    
C15   H41   S    
C19   C59   A    
O1    Zn1   S    
C12   C21   S    
C8    C18   A    
C48   H17   S    
C43   C44   S    
C5    C9    A    
C46   H21   S    
C28   C49   S    
C47   C48   S    
H5    O10   S    
C55   H37   S    
H6    O13   S    
C24   O2    S    
C44   H9    S    
C2    C26   A    
C50   O17   S    
C41   O11   D    
C3    C31   A    
C16   O20   A    
C21   H2    S    
C4    C32   A    
C4    C17   S    
C19   C54   S    
C25   C60   A    
C43   H10   S    
C7    C19   A    
C55   C57   S    
C9    C34   A    
C10   C23   A    
C54   H39   S    
C44   H8    S    
C24   N2    A    
C42   C43   S    
H22   O15   S    
C52   C53   S    
H24   O17   S    
C7    C9    A    
C46   C47   S    
C42   H13   S    
C43   H11   S    
C22   O24   S    
C36   N1    S    
C54   H38   S    
O19   Zn1   S    
C55   H36   S    
O23   Zn1   S    
C6    C10   A    
C5    C8    A    
C56   C59   A    
C14   H40   S    
C6    C7    A    
C20   H44   S    
C27   C36   A    
C24   C56   A    
C22   N1    A    
C39   O7    D    
C31   C38   S    
C29   C46   S    
C13   C15   A    
N4    Zn1   S    
C58   H23   S    
C6    C13   A    
C46   H20   S    
C28   C37   A    
C49   O14   D    
C28   C30   A    
C11   H42   S    
O12   Zn2   S    
C2    C14   A    
O21   Zn2   S    
C37   N2    S    
C22   C45   A    
C20   C21   D    
O18   Zn2   S    
C8    C10   A    
C39   O8    S    
C57   H35   S    
H1    N3    S    
C30   C42   S    
C44   H7    S    
C53   H25   S    
C47   H18   S    
O20   Zn1   S    
C26   O3    S    
C4    C30   A    
C3    C16   S    
