data_mof_unit_pretest_83.cif
_audit_creation_date              2012-12-10T17:31:59-0500
_audit_creation_method            fapswitch 2.2
_symmetry_space_group_name_H-M    P1
_symmetry_Int_Tables_number       1
_space_group_crystal_system       triclinic
_cell_length_a                    12.131385
_cell_length_b                    11.521519
_cell_length_c                    12.808544
_cell_angle_alpha                 91.047729
_cell_angle_beta                  93.397575
_cell_angle_gamma                 86.011801
_cell_volume                      1782.6208441

loop_
_atom_site_label
_atom_site_type_symbol
_atom_type_description
_atom_site_fract_x
_atom_site_fract_y
_atom_site_fract_z
_atom_type_partial_charge
C1    C     C_R   0.478371 0.504114 0.300310 0.938287
C2    C     C_R   0.976025 0.533336 0.542445 -0.128804
C3    C     C_R   0.500097 0.282197 0.499848 0.894892
C4    C     C_R   0.499998 0.717793 0.501093 0.893019
C5    C     C_1   0.500347 0.161633 0.500251 -0.200672
C6    C     C_1   0.499865 0.838363 0.501403 -0.219409
C7    C     C_1   0.500281 0.059353 0.500740 -0.007902
C8    C     C_1   0.500035 0.940627 0.501246 -0.015076
C9    C     C_R   0.536504 0.501961 0.810505 -0.125125
C10   C     C_R   0.467519 0.492456 0.189626 -0.111302
C11   C     C_R   0.446571 0.357992 0.045311 0.259032
C12   C     C_R   0.521974 0.497668 0.699622 0.918047
C13   C     C_R   0.594212 0.612558 0.961590 0.239502
C14   C     C_R   0.436767 0.385927 0.149897 -0.357715
C15   C     C_R   0.595116 0.590876 0.855289 -0.337707
C16   C     C_R   0.513779 0.573153 0.128177 0.136353
C17   C     C_R   0.485147 0.423875 0.870148 0.141417
C18   C     C_R   0.532619 0.543083 0.023619 -0.020886
C19   C     C_R   0.488583 0.439572 0.979336 0.012071
C20   C     C_3   0.304121 0.354848 0.810449 -0.703705
C21   C     C_3   0.620837 0.714037 0.232543 -0.694676
C22   C     C_3   0.521243 0.162246 0.015527 -0.828184
C23   C     C_R   0.047025 0.599057 0.607827 0.135066
C24   C     C_3   0.775162 0.658642 0.028049 -0.800213
C25   C     C_3   0.805005 0.753674 0.559743 -0.725449
C26   C     C_3   0.167240 0.431408 0.272795 -0.732866
C27   C     C_3   0.782420 0.371313 0.227197 -0.845577
C28   C     C_3   0.198053 0.805388 0.604451 -0.822063
C29   C     C_3   0.017051 0.584477 0.791043 -0.829558
C30   C     C_3   0.017435 0.176222 0.438960 -0.821200
C31   C     C_R   0.955974 0.377606 0.414457 0.136408
C32   C     C_R   0.160325 0.599614 0.588247 0.253642
C33   C     C_R   0.839951 0.400090 0.412095 0.252825
C34   C     C_R   0.143162 0.450221 0.459258 0.279926
C35   C     C_R   0.856981 0.546833 0.543857 0.283466
C36   C     C_R   0.025613 0.452364 0.471593 -0.129652
H1    H     H_    0.638276 0.646909 0.806749 0.158225
H2    H     H_    0.595527 0.745008 0.310207 0.234971
H3    H     H_    0.358552 0.210786 0.044794 0.221172
H4    H     H_    0.499051 0.077220 0.981156 0.236893
H5    H     H_    0.552368 0.149141 0.098161 0.244986
H6    H     H_    0.587883 0.194870 0.970358 0.245891
H7    H     H_    0.654608 0.775330 0.962813 0.216670
H8    H     H_    0.820842 0.729090 0.067231 0.232891
H9    H     H_    0.815038 0.632691 0.954557 0.236640
H10   H     H_    0.780102 0.582953 0.080954 0.251322
H11   H     H_    0.809431 0.631771 0.681568 0.238940
H12   H     H_    0.410456 0.321273 0.201953 0.156153
H13   H     H_    0.889419 0.784922 0.568807 0.218180
H14   H     H_    0.747981 0.814879 0.602070 0.228337
H15   H     H_    0.778184 0.754346 0.475268 0.245079
H16   H     H_    0.199751 0.297388 0.383053 0.243168
H17   H     H_    0.078032 0.426845 0.250126 0.219165
H18   H     H_    0.215149 0.379193 0.215288 0.223756
H19   H     H_    0.188295 0.523472 0.269095 0.251391
H20   H     H_    0.698692 0.314849 0.353352 0.280423
H21   H     H_    0.704007 0.416747 0.196623 0.266239
H22   H     H_    0.797302 0.291004 0.179505 0.239505
H23   H     H_    0.458479 0.252796 0.814640 0.239174
H24   H     H_    0.850905 0.428826 0.217453 0.228062
H25   H     H_    0.303366 0.666994 0.664012 0.277118
H26   H     H_    0.190227 0.863883 0.673796 0.233913
H27   H     H_    0.119596 0.814973 0.554887 0.231268
H28   H     H_    0.265825 0.833773 0.558690 0.266530
H29   H     H_    0.035859 0.737853 0.714764 0.254070
H30   H     H_    0.979757 0.633325 0.857117 0.235803
H31   H     H_    0.105385 0.560604 0.813463 0.244504
H32   H     H_    0.972383 0.504281 0.775993 0.248152
H33   H     H_    0.964366 0.249401 0.296818 0.255252
H34   H     H_    0.267288 0.288685 0.856949 0.223991
H35   H     H_    0.059549 0.100626 0.399107 0.238981
H36   H     H_    0.936395 0.150795 0.463951 0.248427
H37   H     H_    0.070334 0.199875 0.508884 0.246056
H38   H     H_    0.273498 0.345774 0.727513 0.243435
H39   H     H_    0.276449 0.442968 0.839416 0.226742
H40   H     H_    0.494266 0.754829 0.117034 0.227825
H41   H     H_    0.663805 0.784919 0.198157 0.230166
H42   H     H_    0.680207 0.636604 0.241695 0.259506
N1    N     N_R   0.792200 0.479100 0.480660 -0.155053
N2    N     N_2   0.222806 0.686687 0.639141 -0.299195
N3    N     N_2   0.007964 0.656598 0.699338 -0.306398
N4    N     N_2   0.001079 0.272826 0.367851 -0.307547
N5    N     N_R   0.207800 0.520900 0.519340 -0.154967
N6    N     N_2   0.423667 0.336838 0.817533 -0.293916
N7    N     N_2   0.523095 0.689310 0.167482 -0.314799
N8    N     N_2   0.424611 0.243442 0.010609 -0.299879
N9    N     N_2   0.660984 0.699726 0.005369 -0.297850
N10   N     N_2   0.801949 0.637801 0.601354 -0.247427
N11   N     N_2   0.194208 0.386573 0.376904 -0.246948
N12   N     N_2   0.774283 0.340112 0.335605 -0.296154
O1    O     O_R   0.578300 0.494420 0.341180 -0.627251
O2    O     O_R   0.421700 0.505580 0.658820 -0.628628
O3    O     O_R   0.390690 0.507830 0.353590 -0.596067
O4    O     O_R   0.609310 0.492170 0.646410 -0.614898
O5    O     O_R   0.593810 0.327740 0.493800 -0.641255
O6    O     O_R   0.406190 0.672260 0.506200 -0.618121
O7    O     O_R   0.406190 0.341150 0.506220 -0.604508
O8    O     O_R   0.593810 0.658850 0.493780 -0.595535
Zn1   Zn    Zn3+2 0.625270 0.491050 0.491710 0.936322
Zn2   Zn    Zn3+2 0.374730 0.508950 0.508290 0.944889

loop_
_geom_bond_atom_site_label_1
_geom_bond_atom_site_label_2
_ccdc_geom_bond_type
C2    C35   A    
C4    O8    A    
C20   H34   S    
C26   H19   S    
C30   H35   S    
C7    C8    S    
C26   N11   S    
C11   C19   A    
C31   N4    S    
C13   C18   A    
C6    C8    T    
C24   H9    S    
N1    Zn1   S    
C27   H24   S    
C11   C14   A    
O5    Zn1   S    
C22   H5    S    
C11   N8    S    
C27   N12   S    
C18   C19   A    
C25   H14   S    
C15   H1    S    
H33   N4    S    
C29   H31   S    
C21   H2    S    
C21   H42   S    
C31   C33   A    
H20   N12   S    
C1    O1    A    
C4    O6    A    
C12   O4    A    
H16   N11   S    
C26   H18   S    
C24   N9    S    
C21   N7    S    
H23   N6    S    
C4    C6    S    
C10   C14   A    
C5    C7    T    
C30   H37   S    
C33   N1    A    
C14   H12   S    
C25   N10   S    
C20   H39   S    
C30   N4    S    
C25   H15   S    
C29   N3    S    
C32   N2    S    
C29   H32   S    
C35   N10   S    
C3    O7    A    
H29   N3    S    
C22   H4    S    
C13   N9    S    
C20   H38   S    
C16   C18   A    
O3    Zn2   S    
C28   H28   S    
C9    C17   A    
N5    Zn2   S    
C20   N6    S    
C27   H21   S    
C16   N7    S    
C24   H8    S    
C34   N5    A    
C26   H17   S    
O7    Zn2   S    
O2    Zn2   S    
C2    C36   A    
C32   N5    A    
C23   N3    S    
C12   O2    A    
C1    C10   S    
C3    C5    S    
C27   H22   S    
C30   H36   S    
C17   N6    S    
H7    N9    S    
C23   C32   A    
C13   C15   A    
C9    C15   A    
C34   N11   S    
C24   H10   S    
C10   C16   A    
C33   N12   S    
H11   N10   S    
C22   H6    S    
O4    Zn1   S    
O6    Zn2   S    
C35   N1    A    
C17   C19   A    
C34   C36   A    
C22   N8    S    
C28   N2    S    
C9    C12   S    
C25   H13   S    
C29   H30   S    
C28   H27   S    
C1    O3    A    
O8    Zn1   S    
C21   H41   S    
C2    C23   A    
C31   C36   A    
C3    O5    A    
H25   N2    S    
H3    N8    S    
O1    Zn1   S    
H40   N7    S    
C28   H26   S    
