data_mof_unit_pretest_645.cif
_audit_creation_date              2012-12-11T14:51:42-0500
_audit_creation_method            fapswitch 2.2
_symmetry_space_group_name_H-M    P1
_symmetry_Int_Tables_number       1
_space_group_crystal_system       triclinic
_cell_length_a                    6.941347
_cell_length_b                    16.742493
_cell_length_c                    16.873236
_cell_angle_alpha                 101.320082
_cell_angle_beta                  89.895912
_cell_angle_gamma                 90.679105
_cell_volume                      1922.64735116

loop_
_atom_site_label
_atom_site_type_symbol
_atom_type_description
_atom_site_fract_x
_atom_site_fract_y
_atom_site_fract_z
_atom_type_partial_charge
O1    O     O_R   0.506340 0.439070 0.579550 -0.532690
O2    O     O_R   0.170010 0.404890 0.412100 -0.546690
O3    O     O_R   0.005010 0.560930 0.420450 -0.540472
C1    C     C_R   0.339384 0.381204 0.383648 0.691953
O4    O     O_R   0.176280 0.429360 0.578400 -0.536000
O5    O     O_R   0.011320 0.585570 0.587940 -0.536578
C2    C     C_R   0.344946 0.412202 0.603731 0.702282
O6    O     O_R   0.500030 0.414430 0.412060 -0.539962
O7    O     O_3   0.340950 0.551220 0.502940 -0.358939
V1    V     V_3+5 0.064020 0.490500 0.499460 1.450781
O8    O     O_R   0.681910 0.595110 0.587900 -0.532064
C3    C     C_R   0.852177 0.618600 0.616400 0.760961
O9    O     O_R   0.675640 0.570640 0.421600 -0.524246
C4    C     C_R   0.846252 0.587731 0.396223 0.747532
V2    V     V_3+5 0.564670 0.509500 0.500540 1.471997
O10   O     O_3   0.837610 0.448780 0.497060 -0.375229
C5    C     C_R   0.893663 0.866517 0.170557 -0.106021
C6    C     C_R   0.867064 0.641503 0.336122 -0.101197
C7    C     C_R   0.057646 0.675014 0.225655 -0.146922
C8    C     C_R   0.010779 0.622253 0.277056 -0.171501
C9    C     C_R   0.764979 0.715298 0.342087 0.084355
C10   C     C_R   0.796254 0.764969 0.282797 0.106907
C11   C     C_R   0.953647 0.746357 0.227875 0.090775
C12   C     C_R   0.003262 0.797819 0.173809 -0.208646
C13   C     C_R   0.733347 0.882929 0.221732 -0.163323
C14   C     C_R   0.678203 0.832054 0.274891 0.161433
H1    H     H_    0.121881 0.782444 0.131880 0.149240
H2    H     H_    0.642921 0.934244 0.217151 0.121583
H3    H     H_    0.174669 0.659243 0.183036 0.146462
H4    H     H_    0.093169 0.566964 0.272634 0.138508
C15   C     C_3   0.712723 0.764661 0.785753 -0.163694
C16   C     C_3   0.757809 0.769475 0.696554 -0.184686
H5    H     H_    0.655978 0.785339 0.651701 0.165420
H6    H     H_    0.571480 0.776731 0.816171 0.172224
C17   C     C_3   0.869216 0.688980 0.686910 -0.091081
C18   C     C_3   0.825524 0.684103 0.775451 0.152724
C19   C     C_3   0.012910 0.732399 0.802980 0.169944
C20   C     C_3   0.055628 0.737246 0.714383 0.125841
C21   C     C_3   0.945558 0.818144 0.724236 -0.165929
C22   C     C_3   0.900843 0.812305 0.812487 -0.113146
H7    H     H_    0.995335 0.873346 0.702678 0.131776
C23   C     C_3   0.492583 0.238336 0.310872 0.201229
C24   C     C_3   0.333481 0.178691 0.271061 -0.187529
H8    H     H_    0.295102 0.119972 0.288599 0.115991
C25   C     C_3   0.408829 0.188994 0.187318 -0.079020
C26   C     C_3   0.569340 0.247656 0.227177 -0.132219
C27   C     C_3   0.431601 0.320711 0.229324 -0.169523
C28   C     C_3   0.271679 0.261240 0.189161 0.214582
C29   C     C_3   0.196272 0.251843 0.273281 -0.191508
C30   C     C_3   0.356434 0.310618 0.313097 -0.059030
H9    H     H_    0.723040 0.245760 0.208882 0.150850
H10   H     H_    0.470377 0.379364 0.211754 0.146308
H11   H     H_    0.042749 0.253560 0.291980 0.129433
C31   C     C_R   0.409675 0.136147 0.830743 -0.106451
C32   C     C_R   0.355922 0.362533 0.667354 -0.058284
C33   C     C_R   0.441575 0.354380 0.805393 -0.079355
C34   C     C_R   0.409965 0.400079 0.745630 -0.131139
C35   C     C_R   0.324999 0.277776 0.650103 -0.202571
C36   C     C_R   0.353348 0.230955 0.710422 0.089283
C37   C     C_R   0.416236 0.269014 0.788799 0.087898
C38   C     C_R   0.449612 0.221049 0.848333 0.068353
C39   C     C_R   0.345634 0.099169 0.752302 0.123665
C40   C     C_R   0.320761 0.146591 0.692991 -0.158289
H12   H     H_    0.484605 0.387111 0.864468 0.181542
H13   H     H_    0.273137 0.117622 0.632940 0.126382
H14   H     H_    0.427163 0.465460 0.760364 0.160292
H15   H     H_    0.282161 0.248277 0.589554 0.099413
O11   O     O_R   0.266070 0.085680 0.087850 -0.534302
O12   O     O_R   0.590090 0.070660 0.921580 -0.531455
O13   O     O_R   0.754780 0.914400 0.912080 -0.541574
C41   C     C_R   0.421443 0.086551 0.895005 0.766041
O14   O     O_R   0.596110 0.095130 0.087880 -0.535237
O15   O     O_R   0.760850 0.939050 0.079570 -0.543342
C42   C     C_R   0.426619 0.118673 0.116512 0.728450
O16   O     O_R   0.260010 0.061030 0.920360 -0.532670
O17   O     O_3   0.425070 0.948840 0.997010 -0.369717
V3    V     V_3+5 0.702100 0.009490 0.000550 1.491734
O18   O     O_R   0.090200 0.929250 0.078500 -0.541496
C43   C     C_R   0.919458 0.914764 0.106043 0.714315
O19   O     O_R   0.084180 0.904770 0.912200 -0.536032
C44   C     C_R   0.914632 0.882112 0.883132 0.728724
V4    V     V_3+5 0.201420 0.990350 0.999580 1.481745
O20   O     O_3   0.928580 0.051150 0.002990 -0.353447
I1    I     I_    0.214532 0.702804 0.888489 -0.367431
C45   C     C_3   0.252258 0.725744 0.674630 -0.684620
H16   H     H_    0.347511 0.776355 0.703974 0.191992
H17   H     H_    0.313715 0.666722 0.681966 0.227433
H18   H     H_    0.239861 0.727394 0.609411 0.222891
C46   C     C_3   0.619094 0.224063 0.380139 -0.794808
H19   H     H_    0.696563 0.165740 0.361801 0.204143
H20   H     H_    0.725921 0.274530 0.395725 0.218396
H21   H     H_    0.528398 0.221295 0.433801 0.199594
I2    I     I_    0.084500 0.282553 0.095352 -0.342365
I3    I     I_    0.561695 0.274928 0.965021 -0.327116
C47   C     C_3   0.305645 0.008741 0.730726 -0.773839
H22   H     H_    0.263529 0.988970 0.666316 0.212069
H23   H     H_    0.436566 0.974793 0.741341 0.197469
H24   H     H_    0.186091 0.992439 0.768512 0.202374
C48   C     C_3   0.478252 0.844624 0.310102 -0.735022
H25   H     H_    0.383558 0.873923 0.271325 0.191745
H26   H     H_    0.407631 0.785420 0.312886 0.235661
H27   H     H_    0.484415 0.885249 0.370490 0.235826
I4    I     I_    0.618672 0.759453 0.454541 -0.484256
I5    I     I_    0.738395 0.579085 0.820469 -0.365852

loop_
_geom_bond_atom_site_label_1
_geom_bond_atom_site_label_2
_ccdc_geom_bond_type
C40   H13   S    
C6    C9    A    
C4    C6    S    
O12   V3    S    
C7    C8    A    
C12   H1    S    
C2    C32   S    
C34   H14   S    
C1    O6    A    
C47   H24   S    
C21   H7    S    
C8    H4    S    
C45   H16   S    
C15   C22   S    
C13   H2    S    
C39   C40   A    
C18   C19   S    
C19   C20   S    
C19   C22   S    
O5    C3    A    
C20   C21   S    
C45   H18   S    
V3    O20   S    
O11   C42   A    
V2    O10   S    
C5    C43   S    
C33   C34   A    
C23   C26   S    
C16   C21   S    
O12   C41   A    
O13   C44   A    
O8    V2    S    
C31   C41   S    
C27   C28   S    
C39   C47   S    
C11   C12   A    
C33   H12   S    
C19   I1    S    
O1    V2    S    
C46   H20   S    
O7    V1    S    
C14   C48   S    
C36   C37   A    
O1    C2    A    
O9    C4    A    
O13   V3    S    
C10   C11   A    
C27   C30   S    
C45   H17   S    
C5    C12   A    
C28   I2    S    
C20   C45   S    
C16   C17   S    
C17   C20   S    
O17   V3    S    
O14   C42   A    
O17   V4    S    
C21   C22   S    
O4    C2    A    
O18   C43   A    
C24   C29   S    
C31   C39   A    
C13   C14   A    
C25   C26   S    
C26   H9    S    
C33   C37   A    
C1    C30   S    
C25   C42   S    
C46   H21   S    
C17   C18   S    
O2    C1    A    
C24   H8    S    
O14   V3    S    
O18   V4    S    
C48   H25   S    
O15   C43   A    
C15   H6    S    
C3    C17   S    
C24   C25   S    
O3    C4    A    
C23   C30   S    
O19   V4    S    
C28   C29   S    
C48   H26   S    
V4    O20   S    
O6    V2    S    
O9    V2    S    
C23   C24   S    
O2    V1    S    
C7    C11   A    
C25   C28   S    
C26   C27   S    
C38   I3    S    
C22   C44   S    
C15   C16   S    
O19   C44   A    
O5    V1    S    
O8    C3    A    
C47   H23   S    
O16   V4    S    
C27   H10   S    
C31   C38   A    
C36   C40   A    
C18   I5    S    
C23   C46   S    
O11   V4    S    
C16   H5    S    
C32   C34   A    
C35   C36   A    
C5    C13   A    
O4    V1    S    
O3    V1    S    
V1    O10   S    
C41   O16   A    
C29   H11   S    
C6    C8    A    
O7    V2    S    
C9    I4    S    
C35   H15   S    
C48   H27   S    
C29   C30   S    
C10   C14   A    
C32   C35   A    
C47   H22   S    
O15   V3    S    
C15   C18   S    
C37   C38   A    
C46   H19   S    
C9    C10   A    
C7    H3    S    
