data_mof_unit_pretest_961.cif
_audit_creation_date              2012-12-11T15:20:19-0500
_audit_creation_method            fapswitch 2.2
_symmetry_space_group_name_H-M    P1
_symmetry_Int_Tables_number       1
_space_group_crystal_system       triclinic
_cell_length_a                    12.995915
_cell_length_b                    13.051513
_cell_length_c                    15.310734
_cell_angle_alpha                 117.137533
_cell_angle_beta                  64.243896
_cell_angle_gamma                 96.925736
_cell_volume                      2071.67930531

loop_
_atom_site_label
_atom_site_type_symbol
_atom_type_description
_atom_site_fract_x
_atom_site_fract_y
_atom_site_fract_z
_atom_type_partial_charge
C1    C     C_R   0.028767 0.834112 0.025901 -0.104955
C2    C     C_R   0.316346 0.555783 0.783027 -0.065112
C3    C     C_R   0.244469 0.482216 0.108077 -0.163807
C4    C     C_R   0.699139 0.409099 0.209432 -0.118621
C5    C     C_R   0.989274 0.294043 0.693895 0.618646
C6    C     C_R   0.336222 0.544229 0.077249 0.112957
C7    C     C_R   0.921833 0.203874 0.696696 -0.111657
C8    C     C_R   0.320017 0.505754 0.681248 0.109243
C9    C     C_R   0.084847 0.144479 0.968191 0.059390
C10   C     C_R   0.914508 0.045611 0.429179 -0.203492
C11   C     C_R   0.899946 0.142394 0.525616 -0.176518
C12   C     C_R   0.705990 0.435699 0.303866 0.090797
C13   C     C_R   0.878205 0.127558 0.617205 0.171903
C14   C     C_R   0.831318 0.027172 0.622338 -0.191454
C15   C     C_R   0.836634 0.933132 0.528220 -0.142707
C16   C     C_R   0.739311 0.580034 0.950080 -0.152592
C17   C     C_R   0.896717 0.937354 0.428463 0.175239
C18   C     C_R   0.576754 0.559736 0.484843 -0.398848
C19   C     C_R   0.481224 0.580712 0.580262 0.647384
C20   C     C_R   0.418919 0.487428 0.585734 -0.094207
C21   C     C_R   0.453473 0.374329 0.502613 -0.289991
C22   C     C_R   0.552163 0.352310 0.408633 0.314713
C23   C     C_R   0.637372 0.562812 0.023119 0.157479
C24   C     C_R   0.611765 0.446897 0.400772 0.025306
C25   C     C_2   0.427560 0.576366 0.113037 0.267448
C26   C     C_2   0.524625 0.603171 0.048502 -0.237051
C27   C     C_2   0.898995 0.967665 0.026073 -0.203649
C28   C     C_R   0.948818 0.720170 0.316419 0.603105
C29   C     C_2   0.886611 0.059974 0.118976 -0.144602
C30   C     C_R   0.661628 0.480703 0.046004 -0.121649
C31   C     C_R   0.023535 0.821996 0.223802 -0.234576
C32   C     C_R   0.803003 0.489023 0.302884 -0.125415
C33   C     C_R   0.928130 0.748979 0.929913 -0.130786
C34   C     C_R   0.950908 0.831098 0.326990 -0.108231
C35   C     C_R   0.953762 0.855359 0.992275 0.133060
C36   C     C_3   0.136933 0.245123 0.528666 -0.375027
C37   C     C_3   0.524145 0.746254 0.699114 -0.278121
C38   C     C_3   0.593465 0.229943 0.320404 -0.998961
C39   C     C_3   0.411776 0.571685 0.214858 -1.009055
C40   C     C_3   0.015420 0.632277 0.383137 -0.314992
C41   C     C_R   0.321780 0.579926 0.011516 -0.171387
C42   C     C_R   0.899987 0.202340 0.792967 -0.253263
C43   C     C_R   0.213257 0.477362 0.686035 -0.146344
C44   C     C_R   0.097988 0.250953 0.043337 -0.133157
C45   C     C_R   0.998638 0.166709 0.946274 -0.087890
H1    H     H_    0.077578 0.897020 0.062928 0.084793
H2    H     H_    0.801166 0.016160 0.695087 0.113624
H3    H     H_    0.636561 0.360508 0.182219 0.091989
H4    H     H_    0.803120 0.855903 0.534293 0.170938
H5    H     H_    0.621711 0.631804 0.474378 0.170692
H6    H     H_    0.404154 0.303924 0.512249 0.149370
H7    H     H_    0.525948 0.625674 0.988160 0.097631
H8    H     H_    0.858850 0.973530 0.979243 0.129926
H9    H     H_    0.920234 0.058142 0.171973 0.123295
H10   H     H_    0.746841 0.628832 0.907214 0.095602
H11   H     H_    0.603228 0.437251 0.090191 0.116348
H12   H     H_    0.839748 0.152408 0.828722 0.129041
H13   H     H_    0.054180 0.893261 0.205786 0.125143
H14   H     H_    0.836881 0.508956 0.361123 0.160471
H15   H     H_    0.882826 0.734087 0.881300 0.091021
H16   H     H_    0.364384 0.645722 0.988054 0.090426
H17   H     H_    0.114754 0.155263 0.492106 0.169411
H18   H     H_    0.199352 0.245486 0.560622 0.149581
H19   H     H_    0.180598 0.271138 0.462519 0.185758
H20   H     H_    0.586428 0.780176 0.643549 0.153854
H21   H     H_    0.569611 0.687620 0.708690 0.120371
H22   H     H_    0.481448 0.821300 0.780140 0.171930
H23   H     H_    0.186443 0.454075 0.622687 0.174976
H24   H     H_    0.590039 0.219468 0.245723 0.241440
H25   H     H_    0.683032 0.209057 0.302138 0.257989
H26   H     H_    0.539755 0.166581 0.345338 0.247851
H27   H     H_    0.330756 0.624022 0.283054 0.245553
H28   H     H_    0.405724 0.481158 0.203302 0.236149
H29   H     H_    0.482329 0.608853 0.238806 0.263760
H30   H     H_    0.091475 0.682904 0.371554 0.153481
H31   H     H_    0.036244 0.544604 0.313269 0.141981
H32   H     H_    0.994436 0.621252 0.456551 0.180976
H33   H     H_    0.159210 0.266687 0.077205 0.100603
H34   H     H_    0.967580 0.103852 0.889495 0.098393
H35   H     H_    0.383743 0.593842 0.807734 0.099430
H36   H     H_    0.222498 0.453878 0.169740 0.099774
H37   H     H_    0.948087 0.054801 0.355196 0.116348
H38   H     H_    0.919530 0.224214 0.523614 0.179934
N1    N     N_R   0.037310 0.720000 0.995790 -0.040542
N2    N     N_R   0.824890 0.517960 0.936420 -0.047087
N3    N     N_R   0.003210 0.648190 0.211380 -0.098596
N4    N     N_R   0.774330 0.457010 0.995840 -0.048759
N5    N     N_R   0.053760 0.709140 0.151960 -0.060896
N6    N     N_R   0.853860 0.498840 0.211410 -0.049308
N7    N     N_R   0.974240 0.667310 0.936390 -0.040186
N8    N     N_R   0.225670 0.542990 0.004160 -0.036545
N9    N     N_R   0.946240 0.290860 0.848040 -0.067404
N10   N     N_R   0.146140 0.501160 0.788590 -0.044969
N11   N     N_R   0.025760 0.332690 0.063610 -0.043648
N12   N     N_R   0.962690 0.280000 0.004210 -0.039890
N13   N     N_R   0.209210 0.553840 0.847990 -0.051990
N14   N     N_R   0.175110 0.482040 0.063580 -0.043548
N15   N     N_R   0.996790 0.351810 0.788620 -0.094265
N16   N     N_R   0.790790 0.446160 0.152010 -0.045219
Ni1   Ni    Ni4+2 0.130310 0.630310 0.999970 0.210448
Ni2   Ni    Ni4+2 0.869690 0.369690 0.000030 0.197501
Ni3   Ni    Ni4+2 0.985640 0.509470 0.863740 0.242017
Ni4   Ni    Ni4+2 0.014360 0.490530 0.136260 0.202314
O1    O     O_3   0.038957 0.324317 0.610265 -0.651017
O2    O     O_3   0.439407 0.692180 0.663327 -0.612173
O3    O     O_3   0.919016 0.690326 0.399461 -0.664644

loop_
_geom_bond_atom_site_label_1
_geom_bond_atom_site_label_2
_ccdc_geom_bond_type
C38   H25   S    
C9    C45   A    
C27   C29   D    
C19   C20   A    
C8    C43   A    
C41   H16   S    
C3    C6    A    
N9    N15   A    
C1    N1    A    
C18   H5    S    
C8    C20   S    
N6    N16   A    
C18   C24   A    
C31   H13   S    
C21   C22   A    
N10   N13   A    
N3    N5    A    
C1    H1    S    
C7    C42   A    
C6    C25   S    
C29   H9    S    
C10   C17   A    
C22   C38   S    
N13   Ni1   S    
C18   C19   A    
C39   H29   S    
C23   C26   S    
N7    Ni3   S    
C43   N10   A    
N4    Ni2   S    
C28   O3    S    
C43   H23   S    
C6    C41   A    
C37   H20   S    
C3    H36   S    
C39   H27   S    
N8    Ni1   S    
C4    C12   A    
C36   H18   S    
C39   H28   S    
C5    O1    S    
C28   C34   A    
C13   C14   A    
C12   C32   A    
C5    N15   A    
N1    N7    A    
C36   H17   S    
N3    Ni4   S    
C42   H12   S    
N2    N4    A    
N1    Ni1   S    
C23   C30   A    
C44   N11   A    
C5    C7    A    
C27   C35   S    
C25   C26   D    
N15   Ni3   S    
C30   H11   S    
C10   H37   S    
C40   H31   S    
C37   O2    S    
C26   H7    S    
C3    N14   A    
C32   N6    A    
C37   H21   S    
C31   C34   A    
C45   H34   S    
N14   Ni4   S    
N8    N14   A    
N5    Ni1   S    
N9    Ni2   S    
C19   O2    S    
N16   Ni2   S    
N11   Ni4   S    
C33   H15   S    
C28   N3    A    
C16   N2    A    
C22   C24   A    
C17   C34   S    
C45   N12   A    
C21   H6    S    
C1    C35   A    
C40   O3    S    
C4    H3    S    
C15   C17   A    
C38   H26   S    
C9    C44   A    
C31   N5    A    
C41   N8    A    
C14   C15   A    
C2    C8    A    
N10   Ni3   S    
C27   H8    S    
C14   H2    S    
C16   C23   A    
C12   C24   S    
C40   H30   S    
C36   O1    S    
C11   H38   S    
C44   H33   S    
C16   H10   S    
C33   N7    A    
C25   C39   S    
C11   C13   A    
C37   H22   S    
C2    N13   A    
C33   C35   A    
C42   N9    A    
C15   H4    S    
N11   N12   A    
C38   H24   S    
C2    H35   S    
C10   C11   A    
C7    C13   S    
C20   C21   A    
C4    N16   A    
C40   H32   S    
C32   H14   S    
C30   N4    A    
C36   H19   S    
N6    Ni4   S    
N2    Ni3   S    
N12   Ni2   S    
