data_mof_unit_pretest_777.cif
_audit_creation_date              2012-12-10T16:54:29-0500
_audit_creation_method            fapswitch 2.2
_symmetry_space_group_name_H-M    P1
_symmetry_Int_Tables_number       1
_space_group_crystal_system       triclinic
_cell_length_a                    15.002857
_cell_length_b                    10.928045
_cell_length_c                    9.692164
_cell_angle_alpha                 90.9738
_cell_angle_beta                  90.243704
_cell_angle_gamma                 90.526624
_cell_volume                      1588.73659992

loop_
_atom_site_label
_atom_site_type_symbol
_atom_type_description
_atom_site_fract_x
_atom_site_fract_y
_atom_site_fract_z
_atom_type_partial_charge
C1    C     C_R   0.500325 0.265221 0.498629 0.883753
C2    C     C_R   0.905976 0.615019 0.494492 0.044851
C3    C     C_R   0.951589 0.283120 0.531344 -0.232328
C4    C     C_R   0.044177 0.283238 0.529563 -0.176747
C5    C     C_R   0.092381 0.392946 0.513641 0.057284
C6    C     C_R   0.046705 0.505472 0.505647 -0.120562
C7    C     C_R   0.094211 0.618237 0.496059 -0.042273
C8    C     C_R   0.045380 0.729421 0.494770 0.483953
C9    C     C_R   0.952392 0.725839 0.487932 -0.308204
C10   C     C_R   0.185307 0.391564 0.504972 0.348710
C11   C     C_R   0.232562 0.502694 0.498632 -0.229008
C12   C     C_R   0.329091 0.499793 0.499637 0.859908
C13   C     C_R   0.188436 0.615731 0.490181 0.139193
C14   C     C_2   0.516685 0.930038 0.389480 -0.247999
C15   C     C_2   0.505639 0.866927 0.505466 -0.386241
C16   C     C_2   0.521102 0.064798 0.386266 0.459740
C17   C     C_2   0.494741 0.132896 0.495751 -0.419360
C18   C     C_2   0.439218 0.444739 0.920789 -0.063169
C19   C     C_2   0.441016 0.441036 0.076363 -0.086271
C20   C     C_R   0.501522 0.734707 0.501229 0.864703
C21   C     C_R   0.670920 0.500734 0.500309 0.811217
C22   C     C_R   0.812956 0.612968 0.490797 -0.226230
C23   C     C_R   0.767026 0.501951 0.501503 -0.044797
C24   C     C_R   0.812574 0.392331 0.516406 -0.243602
C25   C     C_R   0.905504 0.392692 0.518165 0.142918
C26   C     C_R   0.952852 0.504541 0.506589 0.097604
Cu1   Cu    Cu3+1 0.500020 0.500020 0.638630 0.942426
Cu2   Cu    Cu3+1 0.499980 0.499980 0.361370 0.941367
H1    H     H_    0.776091 0.697373 0.481061 0.130284
H2    H     H_    0.502900 0.910335 0.606531 0.153733
H3    H     H_    0.464586 0.092722 0.585649 0.125651
H4    H     H_    0.384571 0.397572 0.868356 0.159767
H5    H     H_    0.552531 0.540124 0.895125 0.194102
H6    H     H_    0.389817 0.387064 0.126255 0.138424
H7    H     H_    0.545747 0.553483 0.107344 0.195088
H8    H     H_    0.775506 0.307132 0.525550 0.135409
H9    H     H_    0.915902 0.197169 0.541955 0.141691
H10   H     H_    0.077900 0.196850 0.540508 0.182906
H11   H     H_    0.916333 0.811013 0.480359 0.160502
H12   H     H_    0.527141 0.880670 0.292895 0.175234
N1    N     N_2   0.499020 0.498660 0.846910 -0.280829
N2    N     N_2   0.499000 0.498630 0.153040 -0.282834
O1    O     O_R   0.500020 0.321960 0.617040 -0.580192
O2    O     O_R   0.499980 0.321920 0.382900 -0.545496
O3    O     O_R   0.370270 0.499990 0.617090 -0.574432
O4    O     O_R   0.370240 0.499950 0.382940 -0.601582
O5    O     O_R   0.500020 0.678080 0.617100 -0.584125
O6    O     O_R   0.499980 0.678040 0.382960 -0.579140
O7    O     O_R   0.629760 0.500050 0.617060 -0.579987
O8    O     O_R   0.629730 0.500010 0.382910 -0.568935
O9    O     O_3   0.562957 0.119629 0.275420 -0.584288
C27   C     C_3   0.508018 0.109661 0.156787 0.068961
H13   H     H_    0.449185 0.170104 0.168796 0.141228
H14   H     H_    0.484094 0.014324 0.136799 0.117350
C28   C     C_3   0.561633 0.149990 0.031602 -0.302681
H15   H     H_    0.578980 0.248762 0.042768 0.232342
H16   H     H_    0.624625 0.097352 0.026296 0.222304
C29   C     C_3   0.509652 0.128376 0.897633 -0.921093
H17   H     H_    0.495615 0.029175 0.881384 0.246112
H18   H     H_    0.550015 0.161183 0.809800 0.273969
H19   H     H_    0.445677 0.178565 0.900236 0.255874
O10   O     O_3   0.230333 0.281177 0.507164 -0.630130
C30   C     C_3   0.256418 0.246241 0.371545 0.040542
H20   H     H_    0.327946 0.221861 0.375329 0.163525
H21   H     H_    0.249986 0.319811 0.293466 0.128725
C31   C     C_3   0.203001 0.133647 0.322332 -0.332087
H22   H     H_    0.206746 0.061233 0.401218 0.245048
H23   H     H_    0.132095 0.158902 0.307919 0.221442
C32   C     C_3   0.238386 0.083065 0.185613 -0.941110
H24   H     H_    0.236432 0.154351 0.105312 0.254984
H25   H     H_    0.196436 0.004130 0.150682 0.265611
H26   H     H_    0.307941 0.051280 0.198479 0.238739
N3    N     N_2   0.239092 0.725905 0.475405 -0.401610
H27   H     H_    0.296058 0.731627 0.535142 0.234115
C33   C     C_3   0.254013 0.761508 0.334191 -0.606026
H28   H     H_    0.295059 0.692467 0.279049 0.224394
H29   H     H_    0.289968 0.850699 0.333439 0.218188
H30   H     H_    0.189573 0.771621 0.278886 0.246341
O11   O     O_3   0.086775 0.843055 0.492914 -0.599774
C34   C     C_3   0.106578 0.882992 0.629598 0.086881
H31   H     H_    0.163631 0.948216 0.623667 0.176801
H32   H     H_    0.128850 0.807408 0.697332 0.129025
C35   C     C_3   0.027094 0.949386 0.694587 -0.402861
H33   H     H_    0.998548 0.013751 0.619274 0.223986
H34   H     H_    0.974631 0.881639 0.721600 0.213797
C36   C     C_3   0.054655 0.020438 0.825089 -0.891202
H35   H     H_    0.083215 0.957538 0.902165 0.254221
H36   H     H_    0.995417 0.065592 0.870707 0.261032
H37   H     H_    0.104825 0.092098 0.800322 0.261249

loop_
_geom_bond_atom_site_label_1
_geom_bond_atom_site_label_2
_ccdc_geom_bond_type
C31   H23   S    
C28   H15   S    
C30   H21   S    
C22   H1    S    
N3    H27   S    
C16   O9    S    
C21   O7    A    
C7    C8    A    
Cu2   O4    S    
C24   H8    S    
C5    C6    A    
C36   H36   S    
C31   C32   S    
C16   C17   D    
C29   H18   S    
C9    H11   S    
C18   C19   S    
C32   H25   S    
H7    N2    S    
Cu2   O8    S    
C1    O1    A    
C8    C9    A    
C2    C22   A    
C8    O11   S    
C23   C24   A    
C19   N2    D    
Cu1   O3    S    
C29   H19   S    
C31   H22   S    
C30   C31   S    
N3    C33   S    
C10   O10   S    
C34   C35   S    
C21   O8    A    
C27   H14   S    
C15   C20   S    
O9    C27   S    
C3    C25   A    
C24   C25   A    
C34   H32   S    
C18   N1    D    
C36   H35   S    
C34   H31   S    
C29   H17   S    
Cu2   O2    S    
O11   C34   S    
C36   H37   S    
C32   H26   S    
C33   H28   S    
O10   C30   S    
Cu1   N1    S    
C1    O2    A    
C35   H33   S    
C7    C13   A    
C2    C26   A    
C33   H29   S    
C20   O6    A    
C12   O4    A    
C35   H34   S    
C13   N3    S    
C28   H16   S    
C17   H3    S    
C14   C16   S    
C18   H4    S    
C3    C4    A    
C27   H13   S    
C15   H2    S    
Cu1   O5    S    
Cu2   O6    S    
C14   C15   D    
C4    H10   S    
C12   O3    A    
C19   H6    S    
C11   C12   S    
C27   C28   S    
C6    C7    A    
C1    C17   S    
H5    N1    S    
C21   C23   S    
C25   C26   A    
C5    C10   A    
C11   C13   A    
C6    C26   A    
Cu2   N2    S    
C32   H24   S    
C33   H30   S    
C20   O5    A    
C10   C11   A    
C14   H12   S    
C30   H20   S    
Cu1   O1    S    
C4    C5    A    
C35   C36   S    
C3    H9    S    
C28   C29   S    
Cu1   Cu2   S    
C22   C23   A    
C2    C9    A    
Cu1   O7    S    
