data_mof_unit_pretest_1445.cif
_audit_creation_date              2013-03-05T16:09:55-0500
_audit_creation_method            fapswitch 2.2
_symmetry_space_group_name_H-M    P1
_symmetry_Int_Tables_number       1
_space_group_crystal_system       triclinic
_cell_length_a                    10.708719
_cell_length_b                    9.909221
_cell_length_c                    10.704924
_cell_angle_alpha                 90.960947
_cell_angle_beta                  91.447563
_cell_angle_gamma                 91.35271
_cell_volume                      1135.10326026

loop_
_atom_site_label
_atom_site_type_symbol
_atom_site_description
_atom_site_fract_x
_atom_site_fract_y
_atom_site_fract_z
_atom_type_partial_charge
O1    O     O_R   0.316770 0.614620 0.499990 -0.587833
O2    O     O_R   0.683230 0.614620 0.500010 -0.509193
O3    O     O_R   0.316800 0.385290 0.500000 -0.583406
O4    O     O_R   0.683200 0.385290 0.500000 -0.580931
C1    C     C_R   0.260188 0.499108 0.498523 1.040321
C2    C     C_R   0.739870 0.501466 0.499746 1.175096
O5    O     O_R   0.500010 0.614690 0.316770 -0.602615
O6    O     O_R   0.499990 0.614690 0.683230 -0.568956
O7    O     O_R   0.500040 0.385360 0.316770 -0.581960
O8    O     O_R   0.499960 0.385360 0.683230 -0.611868
C3    C     C_R   0.505651 0.499241 0.260656 0.949654
C4    C     C_R   0.506402 0.501413 0.739693 0.934937
Zn1   Zn    Zn3+2 0.500000 0.653120 0.500000 1.097053
Zn2   Zn    Zn3+2 0.500000 0.346880 0.500000 1.108243
H1    H     H_    0.353363 0.370426 0.105761 0.217335
H2    H     H_    0.354134 0.371601 0.880774 0.173839
C5    C     C_R   0.718255 0.634014 0.138971 0.525991
C6    C     C_R   0.709150 0.653217 0.880420 0.509553
C7    C     C_R   0.808582 0.712904 0.079970 0.080260
C8    C     C_R   0.802729 0.724004 0.949823 0.074347
C9    C     C_R   0.614048 0.577193 0.939440 -0.146744
C10   C     C_R   0.617019 0.570569 0.070701 -0.140308
C11   C     C_R   0.519448 0.497496 0.128804 -0.010327
C12   C     C_R   0.517292 0.503857 0.872586 0.011359
C13   C     C_R   0.427662 0.425265 0.060318 -0.143034
C14   C     C_R   0.427422 0.427164 0.932883 -0.152527
C15   C     C_R   0.059291 0.406767 0.421539 0.567982
C16   C     C_R   0.931026 0.405929 0.423491 0.584358
C17   C     C_R   0.872235 0.505166 0.493469 -0.513355
C18   C     C_R   0.127627 0.500093 0.496457 -0.549463
C19   C     C_R   0.941018 0.608936 0.555275 0.606907
C20   C     C_R   0.068651 0.602997 0.561731 0.531786
C21   C     C_R   0.596509 0.074087 0.555753 0.309081
C22   C     C_R   0.403856 0.066409 0.444430 0.275909
C23   C     C_R   0.596193 0.930811 0.554391 -0.057392
C24   C     C_R   0.404221 0.923515 0.445648 -0.075087
H3    H     H_    0.672628 0.878598 0.598561 0.253723
H4    H     H_    0.328349 0.865467 0.400726 0.202036
N1    N     N_R   0.500000 0.857200 0.500000 -0.139811
N2    N     N_R   0.500000 0.142810 0.500000 -0.195254
F1    F     F_    0.732317 0.619149 0.263221 -0.639496
F2    F     F_    0.717352 0.654710 0.755171 -0.619942
N3    N     N_R   0.904440 0.783689 0.153402 0.286728
O9    O     O_R   0.958628 0.725837 0.247885 -0.307118
O10   O     O_R   0.932404 0.909389 0.131095 -0.241023
N4    N     N_R   0.895071 0.802096 0.886198 0.313067
O11   O     O_R   0.860782 0.893160 0.807042 -0.211803
O12   O     O_R   0.013504 0.782623 0.906990 -0.257699
F3    F     F_    0.115872 0.323935 0.340236 -0.528177
F4    F     F_    0.864500 0.313548 0.352131 -0.538396
F5    F     F_    0.885827 0.716273 0.608338 -0.513610
F6    F     F_    0.134349 0.698207 0.630660 -0.548544
N5    N     N_R   0.699356 0.144985 0.616406 0.239121
O13   O     O_R   0.682070 0.211166 0.720107 -0.343600
O14   O     O_R   0.812755 0.116347 0.586215 -0.265624
N6    N     N_R   0.302339 0.128286 0.381237 0.257977
O15   O     O_R   0.324231 0.193962 0.279861 -0.318130
O16   O     O_R   0.189476 0.082226 0.399158 -0.243438

loop_
_geom_bond_atom_site_label_1
_geom_bond_atom_site_label_2
_geom_bond_distance
_ccdc_geom_bond_type
C23   N1    1.360950 A    
O7    Zn2   2.004460 S    
C22   N6    1.422535 S    
O6    Zn1   2.004350 S    
C7    N3    1.438883 S    
C6    C9    1.419909 A    
N3    O10   1.301609 A    
C4    C12   1.424191 S    
C22   C24   1.416343 A    
C5    C10   1.420228 A    
O6    C4    1.286208 A    
N3    O9    1.301485 A    
C7    C8    1.399332 A    
C11   C13   1.388771 A    
C17   C19   1.398017 A    
C9    C10   1.407360 A    
N6    O15   1.298284 A    
C15   C18   1.395516 A    
C18   C20   1.398465 A    
O7    C3    1.288118 A    
C12   C14   1.390572 A    
O2    C2    1.287341 A    
O3    Zn2   2.007220 S    
O8    C4    1.289737 A    
O1    C1    1.282085 A    
C3    C11   1.422740 S    
C16   C17   1.397452 A    
C5    C7    1.399072 A    
N6    O16   1.301727 A    
O5    C3    1.286581 A    
C6    C8    1.399978 A    
N5    O14   1.301034 A    
O4    Zn2   1.989577 S    
C21   C23   1.419500 A    
C22   N2    1.379935 A    
Zn1   N1    2.022274 S    
C5    F1    1.345730 S    
O1    Zn1   1.990039 S    
Zn2   N2    2.022176 S    
C24   H4    1.082206 S    
C21   N2    1.379768 A    
N4    O12   1.301544 A    
C15   F3    1.350747 S    
O5    Zn1   1.991813 S    
C2    C17   1.420380 S    
C21   N5    1.428343 S    
H1    C13   1.083055 S    
O4    C2    1.288717 A    
C1    C18   1.419444 S    
O8    Zn2   1.991908 S    
C9    C12   1.422457 A    
C15   C16   1.374071 A    
O2    Zn1   2.007721 S    
N4    O11   1.301033 A    
C20   F6    1.359652 S    
C6    F2    1.346170 S    
C23   H3    1.081614 S    
C13   C14   1.364567 A    
C10   C11   1.419557 A    
C16   F4    1.359168 S    
C24   N1    1.355306 A    
C8    N4    1.433933 S    
C19   C20   1.369485 A    
N5    O13   1.299377 A    
C19   F5    1.352649 S    
O3    C1    1.293140 A    
H2    C14   1.085095 S    
