data_mof_unit_pretest_1325.cif
_audit_creation_date              2012-12-10T17:43:56-0500
_audit_creation_method            fapswitch 2.2
_symmetry_space_group_name_H-M    P1
_symmetry_Int_Tables_number       1
_space_group_crystal_system       triclinic
_cell_length_a                    15.836833
_cell_length_b                    15.005981
_cell_length_c                    13.785393
_cell_angle_alpha                 89.150451
_cell_angle_beta                  90.479166
_cell_angle_gamma                 88.760897
_cell_volume                      3274.81058141

loop_
_atom_site_label
_atom_site_type_symbol
_atom_type_description
_atom_site_fract_x
_atom_site_fract_y
_atom_site_fract_z
_atom_type_partial_charge
C1    C     C_R   0.502418 0.328956 0.500853 0.848551
C2    C     C_R   0.498510 0.671083 0.499495 0.828917
C3    C     C_R   0.499509 0.767862 0.499288 -0.277766
C4    C     C_R   0.501945 0.232201 0.504344 -0.241060
C5    C     C_R   0.577008 0.811735 0.489014 0.323869
C6    C     C_R   0.426665 0.188072 0.526775 0.324671
C7    C     C_R   0.580329 0.903743 0.507365 -0.050418
C8    C     C_R   0.429552 0.095285 0.543641 -0.046670
C9    C     C_R   0.504301 0.952500 0.524588 -0.154070
C10   C     C_R   0.505166 0.046490 0.526216 -0.131988
C11   C     C_R   0.427127 0.907790 0.537912 -0.099495
C12   C     C_R   0.581470 0.091603 0.509810 -0.132711
C13   C     C_R   0.658054 0.949152 0.508300 0.356227
C14   C     C_R   0.357993 0.049462 0.576944 0.327149
C15   C     C_R   0.658449 0.042133 0.509818 0.383315
C16   C     C_R   0.354365 0.956495 0.568121 0.410275
C17   C     C_R   0.541159 0.432852 0.796657 0.551903
C18   C     C_R   0.455668 0.565503 0.205807 0.588813
C19   C     C_R   0.455243 0.564676 0.791275 -0.047810
C20   C     C_R   0.542315 0.434627 0.207962 -0.070008
C21   C     C_R   0.450079 0.564946 0.894484 -0.096113
C22   C     C_R   0.539331 0.429789 0.105398 -0.092153
C23   C     C_R   0.339834 0.500153 0.499716 0.801255
C24   C     C_R   0.660139 0.499759 0.500379 0.824933
C25   C     C_R   0.494786 0.498060 0.948527 -0.013381
C26   C     C_R   0.495659 0.498042 0.052059 0.014578
C27   C     C_R   0.538996 0.430903 0.899064 -0.081217
C28   C     C_R   0.452583 0.565969 0.102186 -0.148099
C29   C     C_R   0.402472 0.629987 0.945912 0.424076
C30   C     C_R   0.579362 0.359482 0.054122 0.380879
C31   C     C_R   0.405243 0.630294 0.047805 -0.191565
C32   C     C_R   0.580840 0.362470 0.952700 -0.139603
C33   C     C_3   0.974466 0.430895 0.559694 -0.306314
C34   C     C_3   0.025286 0.566786 0.443454 -0.283445
C35   C     C_3   0.029825 0.422660 0.468630 0.542776
C36   C     C_3   0.969965 0.574972 0.534378 0.555435
C37   C     C_1   0.250100 0.500618 0.499531 -0.154512
C38   C     C_1   0.749823 0.498897 0.501184 -0.154828
C39   C     C_3   0.028196 0.510360 0.593702 -0.305111
C40   C     C_3   0.971753 0.487264 0.409342 -0.297627
C41   C     C_3   0.082822 0.500673 0.501873 0.065535
C42   C     C_3   0.917065 0.496980 0.500963 0.065101
C43   C     C_1   0.174506 0.500854 0.500503 0.017828
C44   C     C_1   0.825413 0.497781 0.501276 0.010280
C45   C     C_R   0.424696 0.815236 0.522122 0.427824
C46   C     C_R   0.579051 0.185046 0.496607 0.357063
Cu1   Cu    Cu3+1 0.500010 0.499990 0.597420 0.982372
Cu2   Cu    Cu3+1 0.499990 0.500010 0.402580 0.979857
H1    H     H_    0.367334 0.680648 0.083479 0.170531
H2    H     H_    0.613830 0.308896 0.915981 0.208834
H3    H     H_    0.952095 0.375104 0.605884 0.155081
H4    H     H_    0.047389 0.623252 0.398080 0.155690
H5    H     H_    0.947364 0.476596 0.334774 0.156792
H6    H     H_    0.053708 0.519994 0.667909 0.155464
H7    H     H_    0.424230 0.616130 0.747660 0.169834
H8    H     H_    0.579029 0.387252 0.250465 0.140304
N1    N     N_R   0.499960 0.499930 0.743810 -0.227434
N2    N     N_R   0.500040 0.500070 0.256190 -0.186805
O1    O     O_R   0.500020 0.370250 0.582280 -0.548570
O2    O     O_R   0.499980 0.629750 0.417720 -0.556180
O3    O     O_R   0.500010 0.370270 0.417740 -0.607170
O4    O     O_R   0.499990 0.629730 0.582260 -0.569378
O5    O     O_R   0.379080 0.499980 0.582260 -0.571116
O6    O     O_R   0.620920 0.500020 0.417740 -0.581763
O7    O     O_R   0.379070 0.500000 0.417710 -0.545896
O8    O     O_R   0.620930 0.500000 0.582290 -0.601719
O9    O     O_3   0.068269 0.343608 0.434403 -0.589244
C47   C     C_3   0.005505 0.281818 0.411780 0.047904
H9    H     H_    0.960147 0.310557 0.357129 0.137139
H10   H     H_    0.970820 0.261860 0.478299 0.133756
C48   C     C_3   0.047669 0.198805 0.369247 -0.310965
H11   H     H_    0.084212 0.218108 0.304004 0.233196
H12   H     H_    0.092262 0.168405 0.423615 0.234659
C49   C     C_3   0.982634 0.130155 0.340529 -0.915656
H13   H     H_    0.945535 0.109231 0.404548 0.264311
H14   H     H_    0.015479 0.070475 0.310968 0.263923
H15   H     H_    0.938994 0.158447 0.283986 0.268052
O10   O     O_3   0.930528 0.654925 0.564894 -0.593732
C50   C     C_3   0.987644 0.707793 0.616789 0.052837
H16   H     H_    0.978117 0.777838 0.591233 0.181431
H17   H     H_    0.055565 0.690398 0.604287 0.120400
C51   C     C_3   0.967396 0.702746 0.725103 -0.338887
H18   H     H_    0.900092 0.722378 0.736037 0.236983
H19   H     H_    0.976854 0.633248 0.752387 0.214112
C52   C     C_3   0.023044 0.764127 0.783801 -0.900887
H20   H     H_    0.090844 0.747015 0.772700 0.264054
H21   H     H_    0.008702 0.756324 0.862129 0.264511
H22   H     H_    0.010363 0.834693 0.761902 0.256125
O11   O     O_3   0.352069 0.694480 0.900601 -0.720343
H23   H     H_    0.329335 0.670241 0.839673 0.320443
O12   O     O_3   0.616933 0.285981 0.099198 -0.747244
H24   H     H_    0.585884 0.272545 0.159422 0.309242
O13   O     O_3   0.349010 0.771229 0.533346 -0.582547
C53   C     C_3   0.314308 0.743721 0.443387 0.049052
H25   H     H_    0.248052 0.725015 0.457927 0.160516
H26   H     H_    0.346158 0.681992 0.418787 0.190484
C54   C     C_3   0.313674 0.814957 0.361132 -0.401776
H27   H     H_    0.295513 0.881376 0.389174 0.205888
H28   H     H_    0.378022 0.819620 0.330179 0.214765
C55   C     C_3   0.251901 0.791789 0.280200 -0.871585
H29   H     H_    0.266557 0.724445 0.251780 0.279429
H30   H     H_    0.256450 0.841282 0.219900 0.260006
H31   H     H_    0.186183 0.793398 0.307787 0.246047
O14   O     O_3   0.652392 0.231758 0.481096 -0.598843
C56   C     C_3   0.670619 0.231991 0.380918 0.130602
H32   H     H_    0.622004 0.272124 0.340825 0.122606
H33   H     H_    0.671868 0.163370 0.350974 0.160241
C57   C     C_3   0.757381 0.272356 0.365242 -0.360661
H34   H     H_    0.760627 0.336948 0.402989 0.218858
H35   H     H_    0.806890 0.226666 0.396538 0.232184
C58   C     C_3   0.775233 0.287752 0.257838 -0.876438
H36   H     H_    0.769009 0.224757 0.217338 0.280797
H37   H     H_    0.840418 0.311974 0.248812 0.239790
H38   H     H_    0.730858 0.339207 0.227179 0.279527
O15   O     O_3   0.649785 0.767378 0.459163 -0.696530
H39   H     H_    0.637441 0.706949 0.436360 0.330811
O16   O     O_3   0.349033 0.232631 0.527810 -0.701790
H40   H     H_    0.353130 0.292906 0.498533 0.320675
O17   O     O_3   0.735345 0.905128 0.510777 -0.656034
H41   H     H_    0.732037 0.857248 0.560867 0.350276
O18   O     O_3   0.292483 0.092579 0.623665 -0.695654
H42   H     H_    0.316831 0.140028 0.663873 0.365680
O19   O     O_3   0.735588 0.083812 0.510228 -0.564063
C59   C     C_3   0.760719 0.097121 0.607466 0.142601
H43   H     H_    0.772452 0.031815 0.645265 0.138159
H44   H     H_    0.711552 0.135840 0.647432 0.154141
C60   C     C_3   0.842376 0.149570 0.608417 -0.345124
H45   H     H_    0.891821 0.112452 0.567897 0.222913
H46   H     H_    0.831144 0.215460 0.572202 0.222961
C61   C     C_3   0.874006 0.164291 0.711620 -0.913917
H47   H     H_    0.826103 0.202535 0.753354 0.267612
H48   H     H_    0.933122 0.202723 0.709377 0.260306
H49   H     H_    0.887497 0.099302 0.748827 0.258685
O20   O     O_3   0.285525 0.911722 0.605473 -0.542488
C62   C     C_3   0.209587 0.934423 0.554579 0.135583
H50   H     H_    0.191602 0.876686 0.510097 0.140226
H51   H     H_    0.213938 0.993084 0.504272 0.139481
C63   C     C_3   0.139082 0.951226 0.627575 -0.297996
H52   H     H_    0.131316 0.890171 0.672770 0.216719
H53   H     H_    0.156390 0.006395 0.676216 0.264955
C64   C     C_3   0.055399 0.975176 0.576874 -0.944095
H54   H     H_    0.060684 0.038812 0.535517 0.271194
H55   H     H_    0.005032 0.983311 0.631804 0.263033
H56   H     H_    0.037275 0.921682 0.526446 0.255781
O21   O     O_3   0.584207 0.364430 0.752045 -0.749085
H57   H     H_    0.613145 0.389436 0.695575 0.363265
O22   O     O_3   0.413214 0.629296 0.257908 -0.732212
H58   H     H_    0.422891 0.687824 0.226353 0.294855

loop_
_geom_bond_atom_site_label_1
_geom_bond_atom_site_label_2
_ccdc_geom_bond_type
C62   C63   S    
O13   C53   S    
C36   C42   S    
C58   H36   S    
C20   H8    S    
C45   O13   S    
Cu1   O4    S    
C29   O11   S    
O21   H57   S    
C62   H50   S    
C39   C41   S    
C4    C46   A    
C52   H20   S    
C19   N1    A    
C56   H33   S    
C33   C39   S    
C49   H14   S    
C34   C40   S    
C33   C42   S    
C59   H44   S    
C19   C21   A    
C2    C3    S    
C1    O1    A    
Cu1   O5    S    
C2    O2    A    
Cu2   O6    S    
C39   H6    S    
O15   H39   S    
C54   H27   S    
C57   H34   S    
C62   H51   S    
C48   C49   S    
C54   H28   S    
C18   N2    A    
O22   H58   S    
C47   H9    S    
C49   H15   S    
C24   C38   S    
Cu2   O7    S    
C9    C10   A    
C6    O16   S    
C24   O8    A    
C40   C42   S    
C16   O20   S    
C24   O6    A    
C14   O18   S    
C5    O15   S    
C41   C43   S    
C34   C41   S    
C42   C44   S    
C31   H1    S    
C10   C12   A    
O14   C56   S    
C13   O17   S    
Cu2   O2    S    
C52   H21   S    
Cu1   O8    S    
C56   C57   S    
C28   C31   A    
C49   H13   S    
O9    C47   S    
C17   C27   A    
O19   C59   S    
C18   C28   A    
C4    C6    A    
C18   O22   S    
C64   H56   S    
O12   H24   S    
C50   H17   S    
O10   C50   S    
C6    C8    A    
C53   C54   S    
C25   C26   A    
C23   C37   S    
C21   C29   A    
C3    C45   A    
C55   H31   S    
C37   C43   T    
C61   H48   S    
C60   H46   S    
C38   C44   T    
Cu1   N1    S    
C11   C16   A    
Cu1   Cu2   S    
C12   C15   A    
C35   O9    S    
C55   H30   S    
C58   H37   S    
C53   H26   S    
C9    C11   A    
C32   H2    S    
O18   H42   S    
C15   O19   S    
C59   C60   S    
C12   C46   A    
C20   C22   A    
C51   H18   S    
C51   H19   S    
C13   C15   A    
C17   O21   S    
C14   C16   A    
C11   C45   A    
C61   H49   S    
C33   H3    S    
C20   N2    A    
C60   H45   S    
C54   C55   S    
C5    C7    A    
C52   H22   S    
C19   H7    S    
C7    C9    A    
C21   C25   A    
C8    C14   A    
C22   C30   A    
C27   C32   A    
C34   H4    S    
C36   C39   S    
C30   O12   S    
C3    C5    A    
C63   C64   S    
C1    O3    A    
C50   C51   S    
O17   H41   S    
Cu2   N2    S    
O20   C62   S    
C63   H53   S    
C25   C27   A    
C51   C52   S    
C56   H32   S    
C26   C28   A    
C57   C58   S    
C1    C4    S    
C23   O7    A    
C64   H55   S    
C35   C40   S    
C60   C61   S    
C48   H11   S    
C29   C31   A    
C36   O10   S    
O16   H40   S    
C30   C32   A    
Cu2   O3    S    
C46   O14   S    
C47   C48   S    
C23   O5    A    
C55   H29   S    
C33   C35   S    
C57   H35   S    
C61   H47   S    
C58   H38   S    
C34   C36   S    
C53   H25   S    
C35   C41   S    
C63   H52   S    
Cu1   O1    S    
C50   H16   S    
C7    C13   A    
C8    C10   A    
C40   H5    S    
C22   C26   A    
C48   H12   S    
C47   H10   S    
O11   H23   S    
C64   H54   S    
C2    O4    A    
C17   N1    A    
C59   H43   S    
