data_mof_unit_pretest_1937.cif
_audit_creation_date              2012-12-10T20:22:26-0500
_audit_creation_method            fapswitch 2.2
_symmetry_space_group_name_H-M    P1
_symmetry_Int_Tables_number       1
_space_group_crystal_system       triclinic
_cell_length_a                    19.337127
_cell_length_b                    18.422694
_cell_length_c                    15.839143
_cell_angle_alpha                 89.997833
_cell_angle_beta                  90.14489
_cell_angle_gamma                 89.993089
_cell_volume                      5642.54947495

loop_
_atom_site_label
_atom_site_type_symbol
_atom_type_description
_atom_site_fract_x
_atom_site_fract_y
_atom_site_fract_z
_atom_type_partial_charge
C1    C     C_R   0.365617 0.500005 0.499820 0.866266
C2    C     C_R   0.634382 0.499995 0.500154 0.866260
C3    C     C_R   0.709483 0.499986 0.500412 -0.043844
C4    C     C_R   0.290516 0.500028 0.499385 -0.043853
C5    C     C_R   0.964486 0.544795 0.556208 -0.169628
C6    C     C_R   0.035517 0.455315 0.443017 -0.169636
C7    C     C_R   0.036108 0.544869 0.555769 -0.170747
C8    C     C_R   0.963892 0.455242 0.443454 -0.170767
C9    C     C_R   0.071740 0.500128 0.499175 0.100814
C10   C     C_R   0.928261 0.499978 0.500057 0.100826
C11   C     C_R   0.545841 0.726011 0.549552 -0.040157
C12   C     C_R   0.454164 0.273989 0.450441 -0.040156
C13   C     C_R   0.454150 0.726025 0.450459 -0.040119
C14   C     C_R   0.545838 0.273976 0.549558 -0.040122
C15   C     C_R   0.546957 0.802262 0.550728 0.169709
C16   C     C_R   0.453044 0.197738 0.449274 0.169717
C17   C     C_R   0.453026 0.802276 0.449295 0.169653
C18   C     C_R   0.546958 0.197724 0.550731 0.169654
C19   C     C_R   0.499991 0.841704 0.500012 -0.056062
C20   C     C_R   0.499999 0.158296 0.500006 -0.056072
C21   C     C_R   0.444036 0.961877 0.533912 -0.098359
C22   C     C_R   0.555954 0.038123 0.466111 -0.098364
C23   C     C_R   0.555951 0.961861 0.466112 -0.098243
C24   C     C_R   0.444038 0.038140 0.533911 -0.098236
C25   C     C_R   0.499997 0.077098 0.500010 0.180348
C26   C     C_R   0.499992 0.922902 0.500012 0.180342
C27   C     C_R   0.499929 0.500001 0.339082 0.917058
C28   C     C_R   0.500071 0.499999 0.660918 0.917088
C29   C     C_R   0.502362 0.566039 0.956230 -0.168170
C30   C     C_R   0.497646 0.433960 0.043770 -0.168173
C31   C     C_R   0.502283 0.566042 0.043779 -0.167771
C32   C     C_R   0.497726 0.433958 0.956221 -0.167771
C33   C     C_R   0.500083 0.499997 0.913089 0.158742
C34   C     C_R   0.499925 0.500002 0.086911 0.158743
C35   C     C_1   0.500113 0.499997 0.824249 -0.056408
C36   C     C_1   0.499892 0.500003 0.175751 -0.056412
C37   C     C_1   0.499896 0.500003 0.250636 -0.166788
C38   C     C_1   0.500106 0.499996 0.749364 -0.166803
C39   C     C_R   0.745616 0.433995 0.500715 -0.175330
C40   C     C_R   0.254404 0.566032 0.498911 -0.175323
C41   C     C_R   0.254369 0.434056 0.499377 -0.175287
C42   C     C_R   0.745611 0.565969 0.500331 -0.175261
C43   C     C_R   0.817240 0.434030 0.500684 -0.161942
C44   C     C_R   0.182783 0.566022 0.498702 -0.161991
C45   C     C_R   0.182744 0.434131 0.499120 -0.162129
C46   C     C_R   0.817233 0.565921 0.500346 -0.162204
C47   C     C_R   0.853156 0.499972 0.500426 0.106076
C48   C     C_R   0.146844 0.500094 0.498892 0.106059
H1    H     H_    0.504049 0.617102 0.077720 0.156091
H2    H     H_    0.495959 0.382898 0.922280 0.156094
H3    H     H_    0.504179 0.617098 0.922296 0.156159
H4    H     H_    0.495829 0.382902 0.077704 0.156158
H5    H     H_    0.718688 0.382439 0.501078 0.167081
H6    H     H_    0.281345 0.617579 0.498598 0.167094
H7    H     H_    0.281285 0.382487 0.499815 0.167086
H8    H     H_    0.718680 0.617531 0.500009 0.167100
H9    H     H_    0.844628 0.382729 0.501653 0.144311
H10   H     H_    0.155414 0.617333 0.497629 0.144345
H11   H     H_    0.155351 0.382841 0.500096 0.144101
H12   H     H_    0.844606 0.617221 0.499327 0.144094
H13   H     H_    0.937360 0.578929 0.600908 0.143606
H14   H     H_    0.062649 0.421169 0.398335 0.143609
H15   H     H_    0.063705 0.579038 0.600164 0.142314
H16   H     H_    0.936291 0.421065 0.399073 0.142296
H17   H     H_    0.581582 0.695708 0.588650 0.165970
H18   H     H_    0.418431 0.304291 0.411333 0.165967
H19   H     H_    0.418408 0.695734 0.411363 0.166213
H20   H     H_    0.581574 0.304268 0.588663 0.166237
H21   H     H_    0.400408 0.933141 0.560622 0.158157
H22   H     H_    0.599582 0.066860 0.439402 0.158147
H23   H     H_    0.599578 0.933112 0.439404 0.158255
H24   H     H_    0.400412 0.066889 0.560620 0.158252
N1    N     N_R   0.500000 0.689440 0.500000 -0.130555
N2    N     N_R   0.500000 0.310560 0.500000 -0.130559
O1    O     O_R   0.398180 0.560840 0.499980 -0.624857
O2    O     O_R   0.601820 0.439160 0.500020 -0.624846
O3    O     O_R   0.601820 0.560840 0.500020 -0.624856
O4    O     O_R   0.398180 0.439160 0.499980 -0.624837
O5    O     O_R   0.499980 0.560800 0.378020 -0.610267
O6    O     O_R   0.500020 0.439200 0.621980 -0.610260
O7    O     O_R   0.500020 0.560800 0.621980 -0.610466
O8    O     O_R   0.499980 0.439200 0.378020 -0.610485
Zn1   Zn    Zn3+2 0.500000 0.581210 0.500000 0.963739
Zn2   Zn    Zn3+2 0.500000 0.418790 0.500000 0.963743
Br1   Br    Br    0.611601 0.849697 0.624372 -0.475462
Br2   Br    Br    0.388406 0.150299 0.375623 -0.475460
Br3   Br    Br    0.388364 0.849735 0.375672 -0.474283
Br4   Br    Br    0.611601 0.150266 0.624377 -0.474255

loop_
_geom_bond_atom_site_label_1
_geom_bond_atom_site_label_2
_ccdc_geom_bond_type
C30   C32   A    
C21   C26   A    
C3    C42   A    
C12   N2    A    
C14   C18   A    
O6    Zn2   S    
O2    Zn2   S    
C6    C9    A    
C15   C19   A    
C14   N2    A    
C36   C37   T    
C27   O5    A    
C29   H3    S    
C20   C25   S    
O3    Zn1   S    
C29   C33   A    
C42   C46   A    
C23   C26   A    
C19   C26   S    
C41   H7    S    
C33   C35   S    
C11   C15   A    
C12   C16   A    
C44   H10   S    
C22   C25   A    
C34   C36   S    
C15   Br1   S    
C42   H8    S    
C3    C39   A    
C16   Br2   S    
C1    O4    A    
C31   H1    S    
O7    Zn1   S    
C30   C34   A    
C1    O1    A    
C23   H23   S    
C35   C38   T    
C44   C48   A    
C24   C25   A    
C11   N1    A    
C5    C7    A    
C6    C8    A    
C12   H18   S    
C18   Br4   S    
C21   H21   S    
C4    C40   A    
C28   C38   S    
C16   C20   A    
C32   H2    S    
C31   C34   A    
C5    H13   S    
C7    H15   S    
C8    H16   S    
C13   N1    A    
O8    Zn2   S    
C2    O2    A    
C24   H24   S    
C13   H19   S    
C45   C48   A    
C7    C9    A    
C30   H4    S    
C46   C47   A    
C45   H11   S    
C41   C45   A    
C46   H12   S    
C28   O7    A    
C17   Br3   S    
C27   O8    A    
N2    Zn2   S    
C39   C43   A    
C40   H6    S    
C13   C17   A    
C1    C4    S    
C32   C33   A    
C6    H14   S    
C2    C3    S    
C5    C10   A    
C29   C31   A    
C2    O3    A    
O5    Zn1   S    
O1    Zn1   S    
C39   H5    S    
C27   C37   S    
C17   C19   A    
C22   H22   S    
C18   C20   A    
C28   O6    A    
C43   H9    S    
O4    Zn2   S    
C40   C44   A    
C9    C48   S    
C8    C10   A    
C4    C41   A    
C21   C24   A    
C10   C47   S    
C14   H20   S    
C22   C23   A    
C43   C47   A    
N1    Zn1   S    
C11   H17   S    
