data_mof_unit_pretest_916.cif
_audit_creation_date              2012-12-11T14:06:27-0500
_audit_creation_method            fapswitch 2.2
_symmetry_space_group_name_H-M    P1
_symmetry_Int_Tables_number       1
_space_group_crystal_system       triclinic
_cell_length_a                    11.865043
_cell_length_b                    11.859022
_cell_length_c                    19.127325
_cell_angle_alpha                 89.240791
_cell_angle_beta                  90.124259
_cell_angle_gamma                 119.966445
_cell_volume                      2331.34178478

loop_
_atom_site_label
_atom_site_type_symbol
_atom_type_description
_atom_site_fract_x
_atom_site_fract_y
_atom_site_fract_z
_atom_type_partial_charge
C1    C     C_R   0.550769 0.477198 0.596342 0.552246
C2    C     C_R   0.402293 0.839044 0.133176 0.538460
C3    C     C_R   0.154890 0.559974 0.134317 0.541192
C4    C     C_R   0.486771 0.535875 0.103836 0.632363
C5    C     C_R   0.588454 0.449003 0.394505 0.570032
C6    C     C_R   0.522647 0.073010 0.404103 0.568487
C7    C     C_R   0.931083 0.452190 0.406121 0.581500
C8    C     C_1   0.033435 0.515872 0.859367 0.010082
C9    C     C_1   0.453053 0.567467 0.847421 0.002028
C10   C     C_1   0.431376 0.882349 0.847679 -0.010675
C11   C     C_1   0.996513 0.496461 0.726093 -0.025609
C12   C     C_R   0.522005 0.072495 0.596102 0.558262
C13   C     C_1   0.482947 0.523713 0.717927 -0.019618
C14   C     C_1   0.473706 0.954728 0.717550 -0.019237
C15   C     C_1   0.014020 0.508273 0.798010 -0.030338
C16   C     C_1   0.463858 0.547320 0.787238 -0.023538
C17   C     C_1   0.450722 0.912108 0.787107 -0.027544
C18   C     C_1   0.973113 0.479237 0.665306 0.023819
C19   C     C_1   0.508106 0.502897 0.660555 0.017903
C20   C     C_1   0.494769 0.001926 0.660107 0.023161
C21   C     C_2   0.025884 0.513216 0.350246 -0.108269
C22   C     C_2   0.576354 0.448734 0.316480 -0.149462
C23   C     C_R   0.924450 0.447491 0.596777 0.559743
C24   C     C_2   0.492823 0.994147 0.341737 -0.098080
C25   C     C_2   0.111284 0.543667 0.206461 -0.141619
C26   C     C_2   0.521719 0.479050 0.164221 -0.077937
C27   C     C_2   0.417399 0.853695 0.209345 -0.192635
C28   C     C_2   0.157681 0.496403 0.256749 -0.053697
C29   C     C_2   0.641857 0.539555 0.193174 -0.037572
C30   C     C_2   0.334912 0.869096 0.252159 -0.067190
C31   C     C_2   0.252773 0.456307 0.238996 0.277165
C32   C     C_2   0.759890 0.615899 0.148181 0.287326
C33   C     C_2   0.217116 0.869521 0.225542 0.313014
C34   C     C_2   0.104684 0.468838 0.329287 0.013993
C35   C     C_2   0.137424 0.390093 0.378214 0.620624
C36   C     C_2   0.765875 0.671200 0.297811 0.596992
C37   C     C_2   0.270127 0.839649 0.383139 0.606988
C38   C     C_2   0.659195 0.545874 0.271590 -0.032467
C39   C     C_2   0.370270 0.901377 0.326664 0.050213
C40   C     C_R   0.407388 0.849320 0.919743 0.536158
C41   C     C_R   0.073967 0.527133 0.929506 0.572443
C42   C     C_R   0.442633 0.592312 0.919041 0.523668
Cr1   Cr    Cr6+3 0.468420 0.238090 0.499960 1.083309
Cr2   Cr    Cr6+3 0.761910 0.230330 0.499960 1.073900
Cr3   Cr    Cr6+3 0.769670 0.531580 0.499960 1.080032
Cr4   Cr    Cr6+3 0.515700 0.760130 0.026360 1.076385
Cr5   Cr    Cr6+3 0.239870 0.755570 0.026360 1.044973
Cr6   Cr    Cr6+3 0.244430 0.484300 0.026360 1.076763
H1    H     H_    0.035300 0.566626 0.216268 0.094232
H2    H     H_    0.186030 0.366216 0.476261 0.343155
H3    H     H_    0.843273 0.865857 0.301987 0.370271
H4    H     H_    0.086989 0.777348 0.416379 0.356187
H5    H     H_    0.441346 0.405596 0.194378 0.133272
H6    H     H_    0.500811 0.851679 0.231530 0.128189
H7    H     H_    0.020796 0.589872 0.322028 0.147258
H8    H     H_    0.498642 0.359355 0.295044 0.117367
H9    H     H_    0.568677 0.031154 0.301992 0.100533
H10   H     H_    0.352496 0.513844 0.256494 0.078608
H11   H     H_    0.853769 0.679334 0.171573 0.129761
H12   H     H_    0.160078 0.806307 0.183638 0.114378
O1    O     O_R   0.434830 0.101190 0.575190 -0.491189
O2    O     O_R   0.664850 0.560590 0.424150 -0.452920
O3    O     O_R   0.484380 0.363570 0.430280 -0.475115
O4    O     O_R   0.636430 0.120810 0.430280 -0.493848
O5    O     O_R   0.879190 0.515620 0.430280 -0.485246
O6    O     O_3   0.666667 0.333333 0.499980 -0.324797
O7    O     O_R   0.548200 0.655360 0.951320 -0.479627
O8    O     O_R   0.344640 0.892840 0.951320 -0.466451
O9    O     O_R   0.107160 0.451800 0.951320 -0.502274
O10   O     O_R   0.505020 0.871000 0.955840 -0.482708
O11   O     O_R   0.129000 0.634020 0.955840 -0.508269
O12   O     O_R   0.898810 0.333640 0.575190 -0.493400
O13   O     O_R   0.365980 0.494980 0.955840 -0.487162
O14   O     O_R   0.543640 0.655270 0.102360 -0.483142
O15   O     O_R   0.344730 0.888370 0.102360 -0.484033
O16   O     O_R   0.111630 0.456360 0.102360 -0.416905
O17   O     O_R   0.500790 0.870920 0.095850 -0.442913
O18   O     O_R   0.129080 0.629870 0.095850 -0.513838
O19   O     O_R   0.370130 0.499210 0.095850 -0.495770
O20   O     O_2   0.216613 0.353935 0.208711 -0.432260
O21   O     O_2   0.754892 0.604443 0.084698 -0.476359
O22   O     O_2   0.184314 0.943724 0.249568 -0.409494
O23   O     O_R   0.666360 0.565170 0.575190 -0.496063
O24   O     O_2   0.139212 0.293802 0.357648 -0.452692
O25   O     O_R   0.165475 0.426734 0.448136 -0.665994
O26   O     O_2   0.857280 0.674901 0.329217 -0.492168
O27   O     O_R   0.764436 0.786126 0.282792 -0.679300
O28   O     O_2   0.299851 0.810969 0.439169 -0.501483
O29   O     O_R   0.143655 0.816199 0.373246 -0.631334
O30   O     O_3   0.333333 0.666667 0.026340 -0.351774
O31   O     O_R   0.480130 0.360720 0.570290 -0.495539
O32   O     O_R   0.639280 0.119410 0.570290 -0.495127
O33   O     O_R   0.880590 0.519870 0.570290 -0.498518
O34   O     O_R   0.439410 0.104260 0.424150 -0.475819
O35   O     O_R   0.895740 0.335150 0.424150 -0.477414

loop_
_geom_bond_atom_site_label_1
_geom_bond_atom_site_label_2
_ccdc_geom_bond_type
C11   C18   T    
Cr6   O16   S    
C37   O28   D    
Cr2   O6    S    
Cr6   O9    S    
Cr3   O33   S    
C24   C39   D    
C27   H6    S    
Cr1   O3    S    
C31   O20   D    
Cr2   O4    S    
C25   C28   D    
C32   O21   D    
Cr1   O1    S    
C9    C42   S    
C40   O10   A    
C31   H10   S    
C9    C16   T    
C29   C32   S    
C10   C17   T    
C22   C38   D    
Cr3   O2    S    
Cr1   O34   S    
C5    O3    A    
C10   C40   S    
C34   C35   S    
C6    O4    A    
H2    O25   S    
C11   C15   S    
C5    C22   S    
C24   H9    S    
C6    O34   A    
C29   C38   S    
C30   C39   S    
C2    C27   S    
C33   O22   D    
C4    O14   A    
Cr2   O32   S    
C41   O11   A    
C28   C34   S    
C1    O31   A    
Cr6   O30   S    
C27   C30   D    
C14   C17   S    
H4    O29   S    
Cr3   O23   S    
Cr6   O13   S    
C36   O27   S    
C1    C19   S    
C13   C19   T    
C18   C23   S    
C14   C20   T    
C3    C25   S    
C8    C41   S    
C4    O19   A    
H3    O27   S    
C21   H7    S    
C22   H8    S    
C21   C34   D    
C36   O26   D    
C7    C21   S    
Cr1   O31   S    
C23   O33   A    
C7    O5    A    
C6    C24   S    
C12   C20   S    
C3    O16   A    
Cr5   O11   S    
C8    C15   T    
Cr3   O5    S    
C42   O7    A    
Cr5   O30   S    
C1    O23   A    
C26   H5    S    
Cr5   O8    S    
Cr4   O14   S    
Cr6   O19   S    
C41   O9    A    
C42   O13   A    
C30   C33   S    
C23   O12   A    
C12   O32   A    
C28   C31   S    
Cr4   O17   S    
C4    C26   S    
C35   O24   D    
Cr4   O30   S    
C33   H12   S    
C7    O35   A    
C32   H11   S    
C37   O29   S    
C36   C38   S    
Cr5   O15   S    
Cr4   O7    S    
C37   C39   S    
Cr2   O35   S    
C12   O1    A    
C35   O25   S    
Cr1   O6    S    
C5    O2    A    
Cr2   O12   S    
C25   H1    S    
Cr4   O10   S    
C26   C29   D    
C40   O8    A    
C13   C16   S    
Cr3   O6    S    
C2    O17   A    
Cr5   O18   S    
C3    O18   A    
C2    O15   A    
