data_mof_unit_pretest_779.cif
_audit_creation_date              2012-12-10T19:01:21-0500
_audit_creation_method            fapswitch 2.2
_symmetry_space_group_name_H-M    P1
_symmetry_Int_Tables_number       1
_space_group_crystal_system       triclinic
_cell_length_a                    9.538943
_cell_length_b                    10.839958
_cell_length_c                    15.426428
_cell_angle_alpha                 89.742221
_cell_angle_beta                  74.572408
_cell_angle_gamma                 90.787486
_cell_volume                      1537.44296616

loop_
_atom_site_label
_atom_site_type_symbol
_atom_type_description
_atom_site_fract_x
_atom_site_fract_y
_atom_site_fract_z
_atom_type_partial_charge
C1    C     C_R   0.997883 0.262468 0.502671 0.806184
C2    C     C_R   0.680324 0.569052 0.910537 0.019104
C3    C     C_R   0.779099 0.526867 0.958818 0.132795
C4    C     C_R   0.534242 0.596930 0.961441 0.070447
C5    C     C_R   0.484740 0.557283 0.053017 0.073775
C6    C     C_R   0.588543 0.519158 0.097363 -0.228289
C7    C     C_R   0.733354 0.508117 0.051456 -0.222124
C8    C     C_R   0.436112 0.665420 0.926676 -0.245597
C9    C     C_R   0.289569 0.671871 0.971104 -0.249359
C10   C     C_R   0.236094 0.616758 0.055007 0.171303
C11   C     C_R   0.333373 0.561293 0.098151 0.089403
C12   C     C_R   0.918071 0.508141 0.672222 0.815801
C13   C     C_R   0.086887 0.621447 0.097908 -0.220587
C14   C     C_R   0.033260 0.575928 0.185121 -0.202835
C15   C     C_R   0.275330 0.512085 0.185107 -0.259697
C16   C     C_R   0.115796 0.066658 0.517395 0.139152
C17   C     C_R   0.991674 0.129738 0.513286 -0.099440
C18   C     C_R   0.861425 0.062680 0.522342 -0.214455
C19   C     C_R   0.863169 0.933900 0.521608 -0.226811
C20   C     C_R   0.995015 0.871349 0.512124 -0.097070
C21   C     C_R   0.117677 0.939656 0.517680 0.122502
C22   C     C_3   0.270472 0.939420 0.459539 -0.498967
C23   C     C_R   0.999819 0.737996 0.501822 0.777833
C24   C     C_3   0.266890 0.078859 0.458507 -0.449742
C25   C     C_R   0.605888 0.540217 0.426494 0.242472
C26   C     C_R   0.546089 0.441756 0.566171 -0.210336
C27   C     C_R   0.394440 0.438918 0.566462 0.530115
C28   C     C_R   0.459184 0.538747 0.426007 0.169442
C29   C     C_3   0.473139 0.661228 0.381057 -0.496213
C30   C     C_3   0.631355 0.664570 0.383217 -0.479990
C31   C     C_R   0.081848 0.502474 0.327691 0.792958
C32   C     C_R   0.872480 0.527888 0.770766 -0.087077
C33   C     C_R   0.128173 0.524831 0.230201 -0.046750
C34   C     C_R   0.923155 0.499644 0.914436 -0.222040
C35   C     C_R   0.969040 0.499644 0.821525 -0.255787
C36   C     C_R   0.731201 0.571807 0.814077 0.194016
Cu1   Cu    Cu3+1 0.140670 0.499980 0.500000 0.976645
Cu2   Cu    Cu3+1 0.859330 0.500020 0.500000 0.941901
H1    H     H_    0.809073 0.478017 0.088352 0.147599
H2    H     H_    0.012377 0.664109 0.065034 0.143968
H3    H     H_    0.760462 0.108962 0.524997 0.164100
H4    H     H_    0.762959 0.884221 0.523978 0.158530
H5    H     H_    0.347212 0.904987 0.496795 0.191964
H6    H     H_    0.279481 0.898466 0.392329 0.203840
H7    H     H_    0.342436 0.122790 0.493294 0.198465
H8    H     H_    0.271221 0.118477 0.391185 0.196776
H9    H     H_    0.584570 0.396577 0.617550 0.169708
H10   H     H_    0.458515 0.655739 0.312038 0.199547
H11   H     H_    0.342499 0.464833 0.220308 0.144927
H12   H     H_    0.406170 0.729473 0.425148 0.214875
H13   H     H_    0.707878 0.662558 0.315112 0.186673
H14   H     H_    0.655441 0.736611 0.428459 0.207339
H15   H     H_    0.919120 0.585822 0.218487 0.144581
H16   H     H_    0.217963 0.722074 0.939951 0.151233
H17   H     H_    0.999037 0.471493 0.951800 0.152065
H18   H     H_    0.079014 0.472134 0.789329 0.179555
H19   H     H_    0.562283 0.500344 0.168549 0.137727
H20   H     H_    0.469409 0.720963 0.867292 0.180492
N1    N     N_R   0.648210 0.500930 0.499430 -0.198039
N2    N     N_R   0.352300 0.500890 0.499430 -0.216604
O1    O     O_R   0.118810 0.319640 0.500000 -0.545501
O2    O     O_R   0.881230 0.319680 0.499990 -0.589895
O3    O     O_R   0.055580 0.499970 0.629840 -0.538947
O4    O     O_R   0.818000 0.500010 0.629830 -0.554614
O5    O     O_R   0.118770 0.680320 0.500010 -0.581196
O6    O     O_R   0.881190 0.680360 0.500000 -0.585384
O7    O     O_R   0.182000 0.499990 0.370170 -0.584971
O8    O     O_R   0.944420 0.500030 0.370160 -0.579171
O9    O     O_3   0.286110 0.372767 0.629079 -0.579572
C37   C     C_3   0.330034 0.313673 0.699344 0.012976
H21   H     H_    0.230416 0.294631 0.754517 0.163985
H22   H     H_    0.397599 0.374789 0.730239 0.119103
C38   C     C_3   0.399198 0.188366 0.669285 -0.373546
H23   H     H_    0.314269 0.123892 0.658016 0.222767
H24   H     H_    0.485285 0.197542 0.605004 0.202542
C39   C     C_3   0.465555 0.132988 0.740082 -0.906513
H25   H     H_    0.553662 0.194430 0.750604 0.258058
H26   H     H_    0.512528 0.041836 0.717053 0.251653
H27   H     H_    0.380998 0.120043 0.804784 0.256711
N3    N     N_2   0.641214 0.608737 0.758572 -0.429601
H28   H     H_    0.537491 0.572108 0.770680 0.241303
C40   C     C_3   0.672114 0.729372 0.715911 -0.640316
H29   H     H_    0.600877 0.744320 0.670541 0.217102
H30   H     H_    0.786973 0.736367 0.675693 0.229489
H31   H     H_    0.654497 0.803672 0.766721 0.201538

loop_
_geom_bond_atom_site_label_1
_geom_bond_atom_site_label_2
_ccdc_geom_bond_type
C8    C9    A    
C30   H13   S    
C16   C21   A    
C38   H23   S    
C19   C20   A    
C39   H27   S    
C4    C8    A    
C1    O2    A    
C14   C33   A    
C25   C28   A    
C31   O7    A    
C26   C27   A    
Cu1   Cu2   S    
C24   H7    S    
C32   C36   A    
C23   O6    A    
C28   C29   S    
C39   H26   S    
C5    C11   A    
C3    C7    A    
C27   N2    A    
C5    C6    A    
C12   O4    A    
C34   C35   A    
C13   H2    S    
C8    H20   S    
C11   C15   A    
C22   H6    S    
Cu2   O6    S    
C16   C17   A    
Cu1   O5    S    
C31   C33   S    
C37   H21   S    
C26   N1    A    
C27   O9    S    
C19   H4    S    
C34   H17   S    
C16   C24   S    
C21   C22   S    
C12   C32   S    
C38   H24   S    
C6    H19   S    
Cu1   O3    S    
Cu2   O4    S    
C29   H12   S    
C28   N2    A    
C31   O8    A    
C29   H10   S    
C32   C35   A    
C39   H25   S    
N3    C40   S    
C36   N3    S    
C18   H3    S    
C12   O3    A    
C18   C19   A    
C3    C34   A    
C2    C4    A    
C29   C30   S    
C22   H5    S    
C20   C23   S    
C37   C38   S    
C17   C18   A    
C26   H9    S    
Cu2   O8    S    
C40   H30   S    
C38   C39   S    
C22   C24   S    
C9    C10   A    
C2    C36   A    
C25   C30   S    
C30   H14   S    
C35   H18   S    
N3    H28   S    
C10   C13   A    
C1    O1    A    
Cu1   O1    S    
C6    C7    A    
C40   H31   S    
C1    C17   S    
C24   H8    S    
C23   O5    A    
C2    C3    A    
Cu1   O7    S    
C15   H11   S    
O9    C37   S    
Cu1   N2    S    
C10   C11   A    
Cu2   N1    S    
C4    C5    A    
C14   H15   S    
C20   C21   A    
C40   H29   S    
C7    H1    S    
C37   H22   S    
C9    H16   S    
C25   N1    A    
C13   C14   A    
C15   C33   A    
Cu2   O2    S    
