data_mof_unit_pretest_1043.cif
_audit_creation_date              2012-12-11T16:12:46-0500
_audit_creation_method            fapswitch 2.2
_symmetry_space_group_name_H-M    P1
_symmetry_Int_Tables_number       1
_space_group_crystal_system       triclinic
_cell_length_a                    6.937605
_cell_length_b                    21.348551
_cell_length_c                    23.627382
_cell_angle_alpha                 89.999872
_cell_angle_beta                  89.999371
_cell_angle_gamma                 89.999817
_cell_volume                      3499.39990211

loop_
_atom_site_label
_atom_site_type_symbol
_atom_type_description
_atom_site_fract_x
_atom_site_fract_y
_atom_site_fract_z
_atom_type_partial_charge
O1    O     O_R   0.615270 0.806540 0.192260 -0.535119
O2    O     O_R   0.384730 0.193460 0.807740 -0.535118
O3    O     O_R   0.384730 0.193460 0.692260 -0.535119
O4    O     O_R   0.615270 0.806540 0.307740 -0.535118
O5    O     O_R   0.115270 0.693460 0.307740 -0.535110
O6    O     O_R   0.884730 0.306540 0.692260 -0.535112
O7    O     O_R   0.884730 0.306540 0.807740 -0.535113
O8    O     O_R   0.115270 0.693460 0.192260 -0.535114
O9    O     O_R   0.285500 0.813970 0.307340 -0.537995
O10   O     O_R   0.714500 0.186030 0.692660 -0.538001
O11   O     O_R   0.714500 0.186030 0.807340 -0.537995
O12   O     O_R   0.285500 0.813970 0.192660 -0.538001
O13   O     O_R   0.785500 0.686030 0.192660 -0.538005
O14   O     O_R   0.214500 0.313970 0.807340 -0.538003
O15   O     O_R   0.214500 0.313970 0.692660 -0.538001
O16   O     O_R   0.785500 0.686030 0.307340 -0.538001
C1    C     C_R   0.454363 0.829129 0.326744 0.725786
C2    C     C_R   0.545636 0.170871 0.673256 0.725785
C3    C     C_R   0.545635 0.170870 0.826743 0.725780
C4    C     C_R   0.454365 0.829130 0.173257 0.725778
C5    C     C_R   0.954366 0.670871 0.173256 0.725778
C6    C     C_R   0.045634 0.329129 0.826744 0.725787
C7    C     C_R   0.045635 0.329131 0.673257 0.725776
C8    C     C_R   0.954365 0.670869 0.326743 0.725787
O17   O     O_3   0.448760 0.710460 0.250000 -0.368203
O18   O     O_3   0.551240 0.289540 0.750000 -0.368204
O19   O     O_3   0.948760 0.789540 0.250000 -0.368207
O20   O     O_3   0.051240 0.210460 0.750000 -0.368207
V1    V     V_3+5 0.173900 0.757330 0.250000 1.435354
V2    V     V_3+5 0.826100 0.242670 0.750000 1.435363
V3    V     V_3+5 0.673900 0.742670 0.250000 1.435331
V4    V     V_3+5 0.326100 0.257330 0.750000 1.435344
C9    C     C_3   0.112170 0.523563 0.540823 0.162198
C10   C     C_3   0.887829 0.476438 0.459177 0.162184
C11   C     C_3   0.888063 0.476405 0.040864 0.162289
C12   C     C_3   0.111935 0.523594 0.959135 0.162313
C13   C     C_3   0.611681 0.976355 0.959099 0.162208
C14   C     C_3   0.388311 0.023643 0.040900 0.162158
C15   C     C_3   0.388705 0.023706 0.459038 0.162254
C16   C     C_3   0.611299 0.976295 0.540960 0.162215
C17   C     C_3   0.924401 0.552681 0.518400 0.219721
C18   C     C_3   0.075598 0.447319 0.481600 0.219722
C19   C     C_3   0.075857 0.447354 0.018388 0.219704
C20   C     C_3   0.924140 0.552646 0.981611 0.219702
C21   C     C_3   0.423848 0.947387 0.981635 0.219702
C22   C     C_3   0.576145 0.052612 0.018364 0.219710
C23   C     C_3   0.576587 0.052557 0.481661 0.219686
C24   C     C_3   0.423415 0.947444 0.518338 0.219692
H1    H     H_    0.673577 0.480357 0.538047 0.133575
H2    H     H_    0.326422 0.519643 0.461953 0.133576
H3    H     H_    0.326488 0.519776 0.037940 0.133561
H4    H     H_    0.673511 0.480224 0.962059 0.133561
H5    H     H_    0.173451 0.019920 0.962162 0.133555
H6    H     H_    0.826543 0.980078 0.037838 0.133553
H7    H     H_    0.826649 0.979860 0.462328 0.133534
H8    H     H_    0.173355 0.020142 0.537671 0.133534
C25   C     C_1   0.964342 0.625103 0.372062 -0.184953
C26   C     C_1   0.035657 0.374897 0.627938 -0.184953
C27   C     C_1   0.035654 0.374892 0.872066 -0.184954
C28   C     C_1   0.964346 0.625107 0.127934 -0.184968
C29   C     C_1   0.464339 0.874896 0.127937 -0.184971
C30   C     C_1   0.535661 0.125104 0.872063 -0.184956
C31   C     C_1   0.535667 0.125107 0.627934 -0.184968
C32   C     C_1   0.464333 0.874893 0.372066 -0.184963
C33   C     C_3   0.179382 0.511418 0.478946 -0.273171
C34   C     C_3   0.820617 0.488582 0.521054 -0.273176
C35   C     C_3   0.820584 0.488506 0.979005 -0.273198
C36   C     C_3   0.179415 0.511493 0.020995 -0.273193
C37   C     C_3   0.679443 0.988425 0.020937 -0.273222
C38   C     C_3   0.320551 0.011574 0.979062 -0.273235
C39   C     C_3   0.320507 0.011698 0.520845 -0.273272
C40   C     C_3   0.679496 0.988303 0.479154 -0.273282
C41   C     C_3   0.988418 0.541036 0.457046 0.077554
C42   C     C_3   0.011581 0.458964 0.542954 0.077571
C43   C     C_3   0.011577 0.458956 0.957052 0.077485
C44   C     C_3   0.988421 0.541043 0.042947 0.077448
C45   C     C_3   0.488408 0.958960 0.042951 0.077564
C46   C     C_3   0.511587 0.041038 0.957048 0.077625
C47   C     C_3   0.511599 0.041044 0.542947 0.077541
C48   C     C_3   0.488404 0.958957 0.457052 0.077581
C49   C     C_1   0.974434 0.587142 0.410256 -0.001630
C50   C     C_1   0.025565 0.412858 0.589744 -0.001603
C51   C     C_1   0.025561 0.412850 0.910262 -0.001710
C52   C     C_1   0.974438 0.587149 0.089738 -0.001778
C53   C     C_1   0.474424 0.912856 0.089742 -0.001714
C54   C     C_1   0.525574 0.087144 0.910258 -0.001601
C55   C     C_1   0.525584 0.087149 0.589738 -0.001777
C56   C     C_1   0.474417 0.912851 0.410262 -0.001704
N1    N     N_3   0.842496 0.611268 0.538804 -0.647216
H9    H     H_    0.807555 0.604852 0.581433 0.229987
H10   H     H_    0.712577 0.618165 0.517299 0.228142
N2    N     N_3   0.157505 0.388733 0.461197 -0.647223
H11   H     H_    0.192307 0.395132 0.418556 0.229995
H12   H     H_    0.287499 0.381860 0.482670 0.228138
N3    N     N_3   0.158053 0.388806 0.038783 -0.647218
H13   H     H_    0.193399 0.395278 0.081375 0.229974
H14   H     H_    0.287774 0.381905 0.017175 0.228145
N4    N     N_3   0.841936 0.611192 0.961215 -0.647209
H15   H     H_    0.806283 0.604684 0.918649 0.229956
H16   H     H_    0.712376 0.618144 0.982891 0.228147
N5    N     N_3   0.341326 0.888876 0.961268 -0.647219
H17   H     H_    0.305859 0.895362 0.918686 0.229975
H18   H     H_    0.211648 0.882037 0.982915 0.228134
N6    N     N_3   0.658663 0.111123 0.038729 -0.647231
H19   H     H_    0.693612 0.104695 0.081355 0.230004
H20   H     H_    0.788618 0.117874 0.017203 0.228125
N7    N     N_3   0.659604 0.111005 0.461318 -0.647213
H21   H     H_    0.695497 0.104455 0.418774 0.229960
H22   H     H_    0.789086 0.117800 0.483076 0.228128
N8    N     N_3   0.340392 0.888996 0.538679 -0.647216
H23   H     H_    0.304835 0.895509 0.581251 0.229981
H24   H     H_    0.210727 0.882262 0.516999 0.228118
C57   C     C_3   0.238142 0.551312 0.587094 -0.761569
H25   H     H_    0.289730 0.598303 0.573912 0.224547
H26   H     H_    0.153631 0.555644 0.626776 0.209341
H27   H     H_    0.364036 0.520341 0.594592 0.197276
C58   C     C_3   0.761855 0.448688 0.412906 -0.761614
H28   H     H_    0.710269 0.401697 0.426088 0.224546
H29   H     H_    0.635959 0.479659 0.405410 0.197291
H30   H     H_    0.846364 0.444357 0.373224 0.209332
C59   C     C_3   0.762348 0.448620 0.087178 -0.761495
H31   H     H_    0.710997 0.401587 0.074037 0.224579
H32   H     H_    0.846970 0.444369 0.126846 0.209347
H33   H     H_    0.636292 0.479522 0.094678 0.197266
C60   C     C_3   0.237646 0.551381 0.912821 -0.761405
H34   H     H_    0.289005 0.598412 0.925964 0.224578
H35   H     H_    0.363697 0.520478 0.905318 0.197234
H36   H     H_    0.153017 0.555635 0.873154 0.209368
C61   C     C_3   0.737102 0.948516 0.912744 -0.761520
H37   H     H_    0.788258 0.901452 0.925860 0.224619
H38   H     H_    0.652326 0.944320 0.873100 0.209339
H39   H     H_    0.863287 0.979354 0.905215 0.197302
C62   C     C_3   0.262886 0.051482 0.087255 -0.761671
H40   H     H_    0.211737 0.098546 0.074141 0.224619
H41   H     H_    0.136696 0.020645 0.094780 0.197354
H42   H     H_    0.347654 0.055673 0.126901 0.209311
C63   C     C_3   0.263709 0.051615 0.412619 -0.761473
H43   H     H_    0.212911 0.098738 0.425682 0.224675
H44   H     H_    0.348678 0.055695 0.372999 0.209340
H45   H     H_    0.137278 0.020886 0.405075 0.197312
C64   C     C_3   0.736297 0.948387 0.587380 -0.761565
H46   H     H_    0.787092 0.901264 0.574318 0.224674
H47   H     H_    0.862729 0.979115 0.594923 0.197346
H48   H     H_    0.651331 0.944307 0.627000 0.209325

loop_
_geom_bond_atom_site_label_1
_geom_bond_atom_site_label_2
_ccdc_geom_bond_type
O17   V3    S    
C7    C26   S    
C17   N1    S    
C15   C63   S    
O18   V4    S    
N5    H17   S    
C13   C37   S    
O12   V1    S    
O19   V1    S    
C37   C45   S    
C24   N8    S    
C12   C60   S    
C10   C18   S    
C23   C47   S    
C43   C51   S    
C44   C52   S    
C14   C38   S    
C9    C33   S    
O15   V4    S    
C12   C36   S    
O16   V3    S    
C30   C54   T    
O11   C3    A    
O8    V1    S    
C27   C51   T    
C61   H37   S    
C26   C50   T    
C1    C32   S    
C29   C53   T    
C2    C31   S    
C38   C46   S    
C3    C30   S    
C34   C42   S    
O1    V3    S    
C33   C41   S    
O3    C2    A    
O2    V4    S    
C14   C62   S    
C4    C29   S    
C20   C44   S    
N8    H23   S    
C22   C37   S    
C20   N4    S    
N3    H13   S    
O11   V2    S    
C19   C36   S    
C59   H33   S    
C62   H42   S    
C19   N3    S    
N7    H21   S    
C11   C35   S    
N1    H10   S    
C11   C19   S    
H7    C40   S    
O9    V1    S    
C57   H27   S    
C46   C54   S    
C10   C58   S    
O15   C7    A    
O2    C3    A    
C45   C53   S    
O16   C8    A    
O7    V2    S    
C16   C64   S    
C48   C56   S    
O17   V1    S    
N7    H22   S    
C10   C34   S    
C42   C50   S    
C61   H39   S    
H5    C38   S    
C41   C49   S    
N6    H19   S    
O5    V1    S    
C19   C43   S    
C63   H45   S    
C11   C44   S    
C18   C42   S    
C14   C22   S    
H1    C34   S    
O19   V3    S    
O20   V4    S    
C23   N7    S    
C5    C28   S    
C58   H30   S    
C6    C27   S    
C22   C46   S    
C8    C25   S    
C22   N6    S    
C39   C47   S    
C64   H47   S    
C12   C43   S    
C60   H36   S    
C63   H44   S    
O10   V2    S    
C11   C59   S    
H8    C39   S    
O12   C4    A    
N2    H12   S    
O8    C5    A    
C16   C47   S    
O13   C5    A    
C59   H31   S    
C47   C55   S    
H4    C35   S    
C21   N5    S    
O4    C1    A    
O9    C1    A    
O6    V2    S    
O18   V2    S    
N4    H16   S    
C60   H34   S    
C25   C49   T    
C12   C20   S    
C35   C43   S    
C24   C39   S    
C13   C21   S    
C15   C23   S    
C57   H25   S    
C13   C46   S    
C16   C24   S    
C18   C33   S    
H6    C37   S    
O1    C4    A    
C16   C40   S    
C31   C55   T    
C21   C38   S    
O13   V3    S    
O14   V4    S    
N3    H14   S    
C17   C34   S    
C64   H48   S    
C14   C45   S    
C36   C44   S    
O7    C6    A    
C63   H43   S    
C9    C57   S    
C9    C17   S    
C15   C48   S    
C24   C48   S    
C58   H29   S    
N6    H20   S    
C40   C48   S    
C58   H28   S    
C28   C52   T    
O14   C6    A    
C62   H40   S    
O5    C8    A    
O10   C2    A    
O6    C7    A    
O20   V2    S    
N2    H11   S    
C13   C61   S    
C18   N2    S    
H3    C36   S    
O3    V4    S    
H2    C33   S    
N8    H24   S    
C23   C40   S    
C59   H32   S    
O4    V3    S    
C10   C41   S    
C17   C41   S    
C9    C42   S    
N5    H18   S    
N4    H15   S    
C60   H35   S    
C62   H41   S    
C15   C39   S    
C20   C35   S    
C21   C45   S    
C57   H26   S    
N1    H9    S    
C64   H46   S    
C32   C56   T    
C61   H38   S    
