data_mof_unit_pretest_1453.cif
_audit_creation_date              2013-03-05T16:43:02-0500
_audit_creation_method            fapswitch 2.2
_symmetry_space_group_name_H-M    P1
_symmetry_Int_Tables_number       1
_space_group_crystal_system       triclinic
_cell_length_a                    10.688773
_cell_length_b                    10.419493
_cell_length_c                    9.973688
_cell_angle_alpha                 89.707431
_cell_angle_beta                  90.477626
_cell_angle_gamma                 92.655393
_cell_volume                      1109.54189441

loop_
_atom_site_label
_atom_site_type_symbol
_atom_site_description
_atom_site_fract_x
_atom_site_fract_y
_atom_site_fract_z
_atom_type_partial_charge
O1    O     O_R   0.500020 0.316790 0.614690 -0.611315
O2    O     O_R   0.500000 0.316760 0.385350 -0.567178
C1    C     C_R   0.530075 0.266523 0.499311 0.956890
O3    O     O_R   0.314800 0.500000 0.614670 -0.562517
O4    O     O_R   0.314790 0.499960 0.385330 -0.581850
C2    C     C_R   0.259165 0.513633 0.499559 0.979807
Zn1   Zn    Zn3+2 0.500010 0.500020 0.653130 1.062493
Zn2   Zn    Zn3+2 0.499990 0.499980 0.346870 1.105468
O5    O     O_R   0.500000 0.683240 0.614650 -0.622280
O6    O     O_R   0.499980 0.683210 0.385310 -0.571851
O7    O     O_R   0.685210 0.500040 0.614670 -0.602513
O8    O     O_R   0.685200 0.500000 0.385330 -0.602445
C3    C     C_R   0.503058 0.742762 0.498793 0.971439
C4    C     C_R   0.741170 0.514464 0.500653 0.906258
C5    C     C_3   0.075906 0.598694 0.625086 0.214404
H1    H     H_    0.087152 0.535665 0.711223 0.249792
C6    C     C_3   0.934807 0.619873 0.612562 0.067409
H2    H     H_    0.924399 0.720308 0.578230 0.212443
C7    C     C_3   0.072659 0.593093 0.370606 0.184577
C8    C     C_3   0.064834 0.386297 0.504390 -0.483126
C9    C     C_3   0.122131 0.525688 0.499575 -0.222870
H3    H     H_    0.085909 0.335248 0.409992 0.257768
H4    H     H_    0.105939 0.330526 0.587902 0.272153
C10   C     C_3   0.877767 0.526368 0.501575 -0.175991
C11   C     C_3   0.928067 0.576491 0.362214 0.037547
C12   C     C_3   0.923070 0.387883 0.522442 -0.445300
H5    H     H_    0.897711 0.350589 0.623600 0.264782
H6    H     H_    0.876989 0.320370 0.449000 0.233621
H7    H     H_    0.105440 0.543031 0.284567 0.224214
H8    H     H_    0.904835 0.498978 0.287895 0.181609
C13   C     C_R   0.622173 0.070031 0.600076 0.045516
C14   C     C_R   0.584201 0.141034 0.489986 -0.277464
C15   C     C_R   0.578485 0.076737 0.365619 0.271286
C16   C     C_R   0.532972 0.947817 0.367785 0.356700
C17   C     C_R   0.535268 0.879324 0.492145 -0.203866
C18   C     C_R   0.597452 0.939547 0.600703 0.076776
C19   C     C_3   0.576519 0.937099 0.748607 -0.322549
C20   C     C_3   0.608793 0.080890 0.747382 -0.314763
H9    H     H_    0.477532 0.912060 0.775201 0.266686
H10   H     H_    0.648056 0.882773 0.802969 0.230976
H11   H     H_    0.532652 0.141918 0.775044 0.259028
H12   H     H_    0.699866 0.106720 0.797204 0.235650
C21   C     C_R   0.454020 0.395240 0.071513 0.085573
N1    N     N_R   0.499150 0.499140 0.142800 -0.101984
C22   C     C_R   0.556879 0.597452 0.071513 0.053013
H13   H     H_    0.602035 0.677307 0.124554 0.192334
C23   C     C_R   0.555564 0.598065 0.928506 0.055433
H14   H     H_    0.598118 0.678737 0.875463 0.155889
N2    N     N_R   0.499150 0.499180 0.857150 -0.095540
C24   C     C_R   0.456198 0.393199 0.929503 -0.032928
C25   C     C_3   0.326994 0.326180 0.924981 0.321323
C26   C     C_3   0.325235 0.332724 0.079945 0.421010
Cl1   Cl    Cl    0.162778 0.745892 0.664511 -0.403870
N3    N     N_R   0.620981 0.141063 0.243906 0.255982
O9    O     O_R   0.698224 0.241068 0.252377 -0.373966
O10   O     O_R   0.605040 0.087946 0.126926 -0.278238
Cl2   Cl    Cl    0.453361 0.885372 0.223697 -0.371011
N4    N     N_R   0.231038 0.403934 0.864043 0.209953
O11   O     O_R   0.118522 0.352210 0.849665 -0.306124
O12   O     O_R   0.245804 0.528704 0.865381 -0.316996
N5    N     N_R   0.325868 0.197085 0.865003 0.210665
O13   O     O_R   0.367698 0.098605 0.929002 -0.287370
O14   O     O_R   0.287452 0.181111 0.741748 -0.335979
N6    N     N_R   0.230797 0.418371 0.126903 0.196816
O15   O     O_R   0.115718 0.372409 0.135364 -0.324524
O16   O     O_R   0.252131 0.542574 0.122558 -0.316255
Cl3   Cl    Cl    0.321346 0.188837 0.179072 -0.387027
N7    N     N_R   0.875375 0.607307 0.744746 0.241436
O17   O     O_R   0.831843 0.708251 0.800826 -0.356222
O18   O     O_R   0.876065 0.500293 0.812620 -0.314218
Cl4   Cl    Cl    0.134114 0.755781 0.349840 -0.340427
N8    N     N_R   0.870599 0.692955 0.310050 0.256244
O19   O     O_R   0.800492 0.762700 0.383729 -0.423137
O20   O     O_R   0.883377 0.722312 0.183707 -0.247271

loop_
_geom_bond_atom_site_label_1
_geom_bond_atom_site_label_2
_geom_bond_distance
_ccdc_geom_bond_type
O4    Zn2   2.019511 S    
C21   N1    1.365265 A    
C8    H4    1.112249 S    
C21   C24   1.417034 A    
C20   H12   1.111756 S    
C19   C20   1.521785 S    
C16   C17   1.428426 A    
C16   Cl2   1.774968 S    
C13   C18   1.372947 A    
C12   H6    1.114057 S    
C17   C18   1.401471 A    
C25   N5    1.474420 S    
C13   C20   1.482721 S    
Zn2   O8    2.013336 S    
C13   C14   1.389159 A    
C14   C15   1.412292 A    
C6    H2    1.109618 S    
C10   C11   1.572507 S    
C25   C26   1.547721 S    
C19   H9    1.111883 S    
C11   N8    1.475760 S    
C23   N2    1.369107 A    
C22   H13   1.080809 S    
N1    C22   1.369996 A    
Zn1   O7    2.019509 S    
C10   C12   1.555598 S    
C12   H5    1.110481 S    
C1    C14   1.457811 S    
C26   Cl3   1.790704 S    
C8    C12   1.528290 S    
O3    Zn1   2.013338 S    
O1    Zn1   1.949202 S    
O4    C2    1.300991 A    
C5    Cl1   1.799243 S    
N6    O15   1.302400 A    
N7    O18   1.301764 A    
C18   C19   1.493775 S    
C7    C9    1.562462 S    
O8    C4    1.298275 A    
C3    C17   1.449701 S    
C19   H10   1.108652 S    
O2    C1    1.293307 A    
C22   C23   1.426249 A    
N5    O13   1.300502 A    
C7    C11   1.548787 S    
O7    C4    1.294130 A    
N3    O10   1.300429 A    
C21   C26   1.498191 S    
C6    C10   1.578284 S    
C25   N4    1.462634 S    
C7    Cl4   1.800929 S    
O3    C2    1.298716 A    
C5    H1    1.087943 S    
C7    H7    1.075991 S    
C23   H14   1.075802 S    
Zn1   O5    1.945336 S    
C5    C9    1.563537 S    
C15   C16   1.407435 A    
C8    C9    1.550528 S    
Zn1   N2    2.034902 S    
C20   H11   1.093754 S    
N8    O20   1.301982 A    
N2    C24   1.378884 A    
C26   N6    1.459548 S    
C4    C10   1.459536 S    
C15   N3    1.449778 S    
N5    O14   1.301862 A    
O5    C3    1.308573 A    
N3    O9    1.301768 A    
C11   H8    1.117068 S    
C6    N7    1.470802 S    
C24   C25   1.518829 S    
N4    O11   1.302017 A    
C5    C6    1.538286 S    
C2    C9    1.475896 S    
N4    O12   1.302436 A    
N7    O17   1.300499 A    
Zn2   O6    1.949202 S    
O2    Zn2   1.945336 S    
Zn2   N1    2.035337 S    
C8    H3    1.113484 S    
N8    O19   1.301816 A    
O1    C1    1.315169 A    
O6    C3    1.292995 A    
N6    O16   1.304185 A    
