data_mof_unit_pretest_505.cif
_audit_creation_date              2012-12-10T18:29:45-0500
_audit_creation_method            fapswitch 2.2
_symmetry_space_group_name_H-M    P1
_symmetry_Int_Tables_number       1
_space_group_crystal_system       triclinic
_cell_length_a                    11.576903
_cell_length_b                    15.114079
_cell_length_c                    15.266935
_cell_angle_alpha                 81.551373
_cell_angle_beta                  91.220523
_cell_angle_gamma                 105.149723
_cell_volume                      2550.09097786

loop_
_atom_site_label
_atom_site_type_symbol
_atom_type_description
_atom_site_fract_x
_atom_site_fract_y
_atom_site_fract_z
_atom_type_partial_charge
C1    C     C_R   0.478739 0.441472 0.662435 0.860758
C2    C     C_R   0.456921 0.665302 0.976413 0.073705
C3    C     C_R   0.709466 0.852981 0.614715 -0.000575
C4    C     C_R   0.309276 0.150133 0.369593 0.003001
C5    C     C_R   0.661905 0.758550 0.607536 0.277685
C6    C     C_R   0.336800 0.239646 0.393737 0.250157
C7    C     C_R   0.510636 0.794555 0.511336 -0.129914
C8    C     C_R   0.500884 0.209405 0.478841 -0.134099
C9    C     C_R   0.553994 0.890250 0.518193 -0.048227
C10   C     C_R   0.465726 0.114757 0.466586 -0.045502
C11   C     C_R   0.649833 0.917124 0.575331 0.093511
C12   C     C_R   0.522384 0.558243 0.337242 0.886264
C13   C     C_R   0.373710 0.088199 0.406217 0.089927
C14   C     C_R   0.502007 0.959762 0.474078 0.013289
C15   C     C_R   0.521929 0.046479 0.508388 0.013373
C16   C     C_R   0.718163 0.501545 0.500529 0.884195
C17   C     C_R   0.281834 0.498393 0.499729 0.888174
C18   C     C_R   0.597604 0.060498 0.582647 0.137360
C19   C     C_R   0.428641 0.945694 0.398883 0.137423
C20   C     C_R   0.675862 0.004791 0.601731 -0.181941
C21   C     C_R   0.352387 0.002134 0.377108 -0.182818
C22   C     C_1   0.839719 0.503916 0.501387 -0.206557
C23   C     C_R   0.410399 0.340149 0.936290 0.059499
C24   C     C_1   0.160258 0.495867 0.499658 -0.207775
C25   C     C_1   0.941272 0.501890 0.501170 -0.004259
C26   C     C_1   0.058678 0.497749 0.500307 -0.008291
C27   C     C_R   0.446667 0.403602 0.755313 -0.158798
C28   C     C_R   0.538783 0.593898 0.242253 -0.146851
C29   C     C_R   0.413229 0.276372 0.876609 0.184261
C30   C     C_R   0.544921 0.715824 0.118216 0.161784
C31   C     C_R   0.451210 0.313562 0.789221 -0.245215
C32   C     C_R   0.546418 0.686863 0.210035 -0.242733
C33   C     C_R   0.393320 0.451763 0.807246 0.094066
C34   C     C_R   0.498618 0.646291 0.063310 0.022530
C35   C     C_R   0.544474 0.534286 0.181253 0.120814
C36   C     C_R   0.403724 0.431782 0.900279 0.035101
C37   C     C_R   0.494328 0.552534 0.097665 -0.014348
C38   C     C_3   0.587934 0.123678 0.650026 -0.433210
C39   C     C_3   0.574852 0.073795 0.745650 -0.880259
C40   C     C_3   0.435942 0.878714 0.334882 -0.432714
C41   C     C_3   0.450838 0.924729 0.238081 -0.883772
C42   C     C_3   0.651574 0.492089 0.184245 -0.416083
C43   C     C_3   0.646986 0.408982 0.255841 -0.803288
C44   C     C_3   0.295677 0.494219 0.763865 -0.367754
C45   C     C_R   0.424203 0.502461 0.955838 0.036468
C46   C     C_3   0.182626 0.474081 0.821597 -0.872008
C47   C     C_3   0.376657 0.171521 0.902260 -0.387412
C48   C     C_3   0.297132 0.121585 0.833458 -0.895963
C49   C     C_3   0.605905 0.815711 0.079762 -0.422941
C50   C     C_3   0.707535 0.864595 0.135804 -0.876258
C51   C     C_3   0.256755 0.301492 0.358160 -0.366505
C52   C     C_3   0.142670 0.281532 0.415129 -0.814795
C53   C     C_3   0.707739 0.688948 0.671633 -0.379814
C54   C     C_3   0.640732 0.668436 0.760344 -0.865589
C55   C     C_R   0.450300 0.480690 0.045687 0.050686
C56   C     C_R   0.434061 0.387469 0.082049 -0.265858
C57   C     C_R   0.426503 0.595167 0.923826 -0.209133
C58   C     C_R   0.422388 0.318598 0.028844 0.063647
H1    H     H_    0.559100 0.736605 0.255834 0.180944
H2    H     H_    0.523291 0.242892 0.098785 0.196385
H3    H     H_    0.510005 0.800998 0.918438 0.177084
H4    H     H_    0.387455 0.773963 0.989469 0.187206
H5    H     H_    0.496608 0.012119 0.752432 0.272313
H6    H     H_    0.656564 0.052256 0.767694 0.254005
H7    H     H_    0.561215 0.121880 0.790286 0.249360
H8    H     H_    0.668639 0.183393 0.644540 0.204886
H9    H     H_    0.506766 0.149445 0.639663 0.216919
H10   H     H_    0.372734 0.950605 0.214661 0.255916
H11   H     H_    0.533417 0.982754 0.228907 0.268976
H12   H     H_    0.476293 0.270729 0.745973 0.174680
H13   H     H_    0.457173 0.872244 0.196357 0.255603
H14   H     H_    0.515131 0.850783 0.347793 0.215237
H15   H     H_    0.353286 0.820645 0.341601 0.205907
H16   H     H_    0.555727 0.362308 0.267084 0.258700
H17   H     H_    0.706454 0.368140 0.235955 0.227020
H18   H     H_    0.681661 0.433409 0.318568 0.276135
H19   H     H_    0.664844 0.471004 0.119202 0.211175
H20   H     H_    0.734201 0.547019 0.193375 0.201278
H21   H     H_    0.112084 0.498636 0.782505 0.249257
H22   H     H_    0.148808 0.398332 0.843449 0.262576
H23   H     H_    0.438822 0.367818 0.152482 0.166453
H24   H     H_    0.199592 0.510159 0.880558 0.265097
H25   H     H_    0.329817 0.569290 0.740067 0.199898
H26   H     H_    0.265451 0.463074 0.702955 0.201316
H27   H     H_    0.219115 0.150980 0.818926 0.268898
H28   H     H_    0.347343 0.126998 0.771052 0.264356
H29   H     H_    0.263524 0.046834 0.859894 0.252100
H30   H     H_    0.457576 0.145256 0.913226 0.208207
H31   H     H_    0.320865 0.151640 0.963575 0.233958
H32   H     H_    0.672683 0.879167 0.197703 0.259935
H33   H     H_    0.771834 0.821678 0.152274 0.266209
H34   H     H_    0.402001 0.615934 0.857793 0.173733
H35   H     H_    0.756275 0.931969 0.097686 0.249485
H36   H     H_    0.649755 0.815408 0.015940 0.210715
H37   H     H_    0.539751 0.857284 0.067501 0.198731
H38   H     H_    0.163173 0.275178 0.486792 0.274839
H39   H     H_    0.098362 0.338489 0.397823 0.246042
H40   H     H_    0.077789 0.216390 0.403537 0.228669
H41   H     H_    0.303580 0.374854 0.349704 0.252807
H42   H     H_    0.230326 0.292918 0.289133 0.158366
H43   H     H_    0.666465 0.611110 0.803579 0.249671
H44   H     H_    0.660773 0.730143 0.794954 0.244496
H45   H     H_    0.745319 0.023744 0.649281 0.177842
H46   H     H_    0.543313 0.647634 0.749170 0.271221
H47   H     H_    0.700789 0.623763 0.647641 0.263303
H48   H     H_    0.805006 0.713858 0.682860 0.169086
H49   H     H_    0.804205 0.855356 0.729741 0.194794
H50   H     H_    0.887270 0.866343 0.635479 0.185995
H51   H     H_    0.135591 0.123849 0.327139 0.202055
H52   H     H_    0.242524 0.164322 0.244551 0.171517
H53   H     H_    0.283747 0.982399 0.329235 0.180052
H54   H     H_    0.581783 0.237552 0.512635 0.154752
H55   H     H_    0.430533 0.768194 0.475955 0.151875
H56   H     H_    0.374273 0.202537 0.118732 0.177501
N1    N     N_R   0.566020 0.731700 0.552730 -0.117893
N2    N     N_R   0.433980 0.268300 0.447270 -0.119590
N3    N     N_3   0.439503 0.231192 0.068996 -0.492536
N4    N     N_3   0.431658 0.751572 0.941508 -0.473241
N5    N     N_3   0.816688 0.884720 0.663247 -0.489542
N6    N     N_3   0.219356 0.121852 0.305291 -0.492337
O1    O     O_R   0.466720 0.383110 0.605620 -0.604122
O2    O     O_R   0.533280 0.616890 0.394380 -0.612946
O3    O     O_R   0.509090 0.531900 0.639510 -0.616409
O4    O     O_R   0.490910 0.468100 0.360490 -0.624750
O5    O     O_R   0.644370 0.425610 0.483050 -0.618440
O6    O     O_R   0.355630 0.574390 0.516950 -0.609964
O7    O     O_R   0.686740 0.574390 0.516930 -0.631176
O8    O     O_R   0.313260 0.425610 0.483070 -0.610970
Zn1   Zn    Zn3+2 0.471710 0.400660 0.477370 0.913277
Zn2   Zn    Zn3+2 0.528290 0.599340 0.522630 0.918689

loop_
_geom_bond_atom_site_label_1
_geom_bond_atom_site_label_2
_ccdc_geom_bond_type
C15   C18   A    
C46   H22   S    
C55   C56   A    
C57   H34   S    
C23   C58   A    
C34   C37   A    
C39   H7    S    
C54   H43   S    
C44   H25   S    
O8    Zn1   S    
C2    N4    S    
C2    C57   A    
C56   H23   S    
C20   H45   S    
C53   C54   S    
C27   C33   A    
C39   H6    S    
C45   C57   A    
C12   C28   S    
C23   C29   A    
C5    C53   S    
C19   C21   A    
C24   C26   T    
C10   C15   A    
C8    H54   S    
C46   H21   S    
C17   O6    A    
O6    Zn2   S    
C23   C36   A    
C52   H39   S    
C43   H18   S    
C33   C36   A    
C40   H15   S    
C7    N1    A    
C4    C13   A    
C35   C42   S    
C46   H24   S    
C53   H48   S    
C50   H32   S    
C31   H12   S    
N2    Zn1   S    
C38   H8    S    
C28   C35   A    
C22   C25   T    
C49   H36   S    
C16   O5    A    
C41   H13   S    
C2    C34   A    
C43   H16   S    
C5    N1    A    
C43   H17   S    
C47   H31   S    
H50   N5    S    
H49   N5    S    
C21   H53   S    
C44   C46   S    
C41   H10   S    
C51   H41   S    
C11   C20   A    
C17   C24   S    
C30   C34   A    
C27   C31   A    
C51   C52   S    
C28   C32   A    
C4    C6    A    
H52   N6    S    
C3    C5    A    
C25   C26   S    
C58   N3    S    
C9    C14   A    
C1    O3    A    
C53   H47   S    
C47   C48   S    
C12   O4    A    
C48   H29   S    
C13   C21   A    
C36   C45   A    
C17   O8    A    
C49   H37   S    
C9    C11   A    
C6    N2    A    
C3    N5    S    
C40   C41   S    
C30   C49   S    
C29   C47   S    
C42   H20   S    
O3    Zn2   S    
H2    N3    S    
C6    C51   S    
C48   H28   S    
C42   C43   S    
C41   H11   S    
C54   H46   S    
C51   H42   S    
C7    C9    A    
C16   C22   S    
C40   H14   S    
C35   C37   A    
H3    N4    S    
C48   H27   S    
C33   C44   S    
C14   C19   A    
C54   H44   S    
O1    Zn1   S    
C44   H26   S    
C10   C13   A    
C50   H35   S    
C39   H5    S    
C47   H30   S    
C7    H55   S    
C18   C38   S    
O7    Zn2   S    
C29   C31   A    
C30   C32   A    
C38   C39   S    
C52   H40   S    
C56   C58   A    
O4    Zn1   S    
C52   H38   S    
C18   C20   A    
C16   O7    A    
C1    O1    A    
H4    N4    S    
H56   N3    S    
C3    C11   A    
C19   C40   S    
C8    N2    A    
C37   C55   A    
O5    Zn1   S    
C50   H33   S    
C12   O2    A    
C38   H9    S    
C45   C55   A    
C42   H19   S    
C8    C10   A    
C49   C50   S    
C1    C27   S    
C14   C15   A    
C4    N6    S    
C32   H1    S    
O2    Zn2   S    
H51   N6    S    
N1    Zn2   S    
