data_mof_unit_pretest_1131.cif
_audit_creation_date              2013-03-05T16:48:15-0500
_audit_creation_method            fapswitch 2.2
_symmetry_space_group_name_H-M    P1
_symmetry_Int_Tables_number       1
_space_group_crystal_system       triclinic
_cell_length_a                    23.42154
_cell_length_b                    8.922159
_cell_length_c                    8.094516
_cell_angle_alpha                 90.026711
_cell_angle_beta                  89.948574
_cell_angle_gamma                 89.989963
_cell_volume                      1691.51581505

loop_
_atom_site_label
_atom_site_type_symbol
_atom_site_description
_atom_site_fract_x
_atom_site_fract_y
_atom_site_fract_z
_atom_type_partial_charge
O1    O     O_R   0.500000 0.285350 0.636850 -0.612877
O2    O     O_R   0.500000 0.714650 0.363150 -0.612878
O3    O     O_R   0.500000 0.714650 0.636850 -0.617609
O4    O     O_R   0.500000 0.285350 0.363150 -0.617748
H1    H     H_    0.947763 0.177043 0.729556 0.190328
H2    H     H_    0.052643 0.804873 0.261534 0.189054
H3    H     H_    0.948915 0.807831 0.264440 0.190127
H4    H     H_    0.051512 0.177289 0.731898 0.189465
C1    C     C_R   0.499998 0.217966 0.499974 0.940788
C2    C     C_R   0.499995 0.782034 0.500026 0.940935
O5    O     O_R   0.416160 0.500000 0.636910 -0.621095
O6    O     O_R   0.583840 0.500000 0.363090 -0.622463
O7    O     O_R   0.583840 0.500000 0.636910 -0.622180
O8    O     O_R   0.416160 0.500000 0.363090 -0.618241
C3    C     C_R   0.208668 0.491692 0.500198 0.236033
C4    C     C_R   0.791680 0.495484 0.498838 0.211477
C5    C     C_R   0.389147 0.499836 0.500065 0.886859
C6    C     C_R   0.610965 0.499852 0.499910 0.889394
Zn1   Zn    Zn3+2 0.500000 0.500000 0.682780 0.988407
Zn2   Zn    Zn3+2 0.500000 0.500000 0.317220 0.988860
C7    C     C_R   0.297223 0.576957 0.621003 -0.213912
C8    C     C_R   0.702338 0.438399 0.364401 -0.213956
C9    C     C_R   0.298419 0.415380 0.379712 -0.244906
C10   C     C_R   0.702866 0.557159 0.634433 -0.214113
H5    H     H_    0.321104 0.640352 0.711428 0.170663
H6    H     H_    0.677987 0.393496 0.262384 0.175560
H7    H     H_    0.322264 0.352871 0.287723 0.165345
H8    H     H_    0.678911 0.603183 0.736772 0.175235
C11   C     C_R   0.327261 0.497610 0.500153 -0.113792
C12   C     C_R   0.673081 0.498589 0.499569 -0.130744
C13   C     C_R   0.880952 0.606248 0.417387 0.477560
C14   C     C_R   0.119485 0.380796 0.582029 0.470327
C15   C     C_R   0.880523 0.381220 0.578273 0.477958
C16   C     C_R   0.119870 0.600715 0.412763 0.492546
N1    N     N_R   0.852565 0.494290 0.498195 -0.360075
N2    N     N_R   0.147834 0.490865 0.498040 -0.356405
C17   C     C_R   0.940104 0.378459 0.580692 -0.008326
C18   C     C_R   0.060302 0.604078 0.411414 -0.010709
C19   C     C_R   0.940527 0.606875 0.413761 -0.008232
C20   C     C_R   0.059899 0.378108 0.582369 -0.006970
C21   C     C_R   0.970225 0.492206 0.497039 -0.024577
C22   C     C_R   0.030191 0.491418 0.496874 -0.024780
C23   C     C_R   0.970081 0.265430 0.664391 -0.167185
C24   C     C_R   0.030330 0.717144 0.327784 -0.169481
C25   C     C_R   0.970908 0.718863 0.329486 -0.166331
C26   C     C_R   0.029515 0.265565 0.665729 -0.167531
C27   C     C_1   0.499994 0.065204 0.499964 -0.191394
C28   C     C_1   0.499993 0.934796 0.500037 -0.191392
C29   C     C_R   0.237429 0.577540 0.621143 0.178125
C30   C     C_R   0.762004 0.433959 0.362803 0.191181
C31   C     C_R   0.239046 0.409231 0.379937 0.198393
C32   C     C_R   0.762570 0.558491 0.635283 0.191609
N3    N     N_1   0.500000 0.500000 0.073640 -0.035534
N4    N     N_1   0.500000 0.500000 0.926360 -0.035460
O9    O     O_2   0.851408 0.716142 0.341124 -0.574755
O10   O     O_2   0.149077 0.274437 0.663934 -0.581252
O11   O     O_2   0.850557 0.272374 0.655084 -0.574500
O12   O     O_2   0.149817 0.706450 0.330769 -0.579509
C33   C     C_3   0.202702 0.668614 0.744943 -0.397990
C34   C     C_3   0.236968 0.755636 0.874138 -0.838988
H9    H     H_    0.263707 0.678485 0.948819 0.260624
H10   H     H_    0.264295 0.841207 0.813469 0.262441
H11   H     H_    0.207106 0.814320 0.958962 0.278011
H12   H     H_    0.176200 0.750788 0.676138 0.236421
H13   H     H_    0.173172 0.592037 0.811137 0.216105
C35   C     C_3   0.795653 0.365935 0.219764 -0.396301
C36   C     C_3   0.760586 0.284250 0.088104 -0.843483
H14   H     H_    0.735402 0.192187 0.144886 0.264658
H15   H     H_    0.731728 0.363164 0.022988 0.256195
H16   H     H_    0.789872 0.234640 0.994956 0.285155
H17   H     H_    0.820426 0.456074 0.157980 0.228425
H18   H     H_    0.826613 0.283598 0.270557 0.227235
C37   C     C_3   0.209351 0.313341 0.251779 -0.399809
C38   C     C_3   0.210021 0.388953 0.083053 -0.823579
H19   H     H_    0.254553 0.405479 0.039485 0.259149
H20   H     H_    0.187211 0.317658 0.992144 0.284080
H21   H     H_    0.188096 0.499032 0.090551 0.285440
H22   H     H_    0.231054 0.202786 0.243109 0.217338
H23   H     H_    0.164353 0.289973 0.285778 0.220837
C39   C     C_3   0.796839 0.624775 0.777865 -0.396806
C40   C     C_3   0.762484 0.708153 0.910018 -0.842294
H24   H     H_    0.737894 0.801459 0.853600 0.264839
H25   H     H_    0.733140 0.630662 0.975515 0.256245
H26   H     H_    0.792207 0.756294 0.002766 0.285465
H27   H     H_    0.821027 0.533383 0.839269 0.228341
H28   H     H_    0.828328 0.705570 0.726674 0.226929

loop_
_geom_bond_atom_site_label_1
_geom_bond_atom_site_label_2
_geom_bond_distance
_ccdc_geom_bond_type
C10   C32   1.398428 A    
C5    C11   1.449598 S    
C21   C22   1.404533 A    
C7    C29   1.400476 A    
C40   H24   1.110836 S    
C19   C21   1.409315 A    
N3    N4    1.192160 T    
C3    C29   1.414048 A    
C20   C26   1.403582 A    
O5    Zn1   1.998786 S    
C33   H12   1.110790 S    
C38   H20   1.109934 S    
O7    C6    1.277547 A    
C34   H11   1.110598 S    
C9    C11   1.394894 A    
C4    C30   1.413468 A    
C18   C22   1.409348 A    
C4    N1    1.426059 S    
C34   H10   1.110717 S    
C37   C38   1.523634 S    
C39   H28   1.111393 S    
C31   C37   1.514107 S    
C35   H18   1.111363 S    
C27   C28   1.163525 T    
C38   H21   1.109823 S    
C37   H22   1.111740 S    
O3    Zn1   1.951064 S    
C6    C12   1.454889 S    
C9    H7    1.084496 S    
C10   H8    1.080921 S    
C8    C30   1.398082 A    
C20   C22   1.409395 A    
C35   C36   1.530542 S    
H1    C23   1.083228 S    
C33   C34   1.530210 S    
H3    C25   1.083230 S    
H2    C24   1.083232 S    
O8    C5    1.276071 A    
C40   H25   1.109641 S    
C10   C12   1.397283 A    
O1    Zn1   1.950724 S    
C38   H19   1.110580 S    
O7    Zn1   1.998129 S    
O2    Zn2   1.950723 S    
C36   H14   1.110816 S    
O8    Zn2   1.998131 S    
O1    C1    1.260305 A    
C39   C40   1.530578 S    
C7    C11   1.396794 A    
C15   C17   1.395835 A    
C34   H9    1.110137 S    
C36   H15   1.109601 S    
C17   C23   1.403644 A    
C18   C24   1.403554 A    
C39   H27   1.110683 S    
C9    C31   1.391698 A    
C35   H17   1.110666 S    
O6    Zn2   1.998784 S    
C37   H23   1.108862 S    
C30   C35   1.525639 S    
Zn1   N4    1.971662 S    
C1    C27   1.362963 S    
C3    C31   1.411772 A    
C2    C28   1.362965 S    
C13   N1    1.366671 A    
O2    C2    1.260306 A    
C14   N2    1.366576 A    
C3    N2    1.424965 S    
C40   H26   1.110628 S    
C24   C25   1.391897 A    
C7    H5    1.081204 S    
O5    C5    1.276142 A    
C15   O11   1.349925 S    
C8    C12   1.397499 A    
C16   C18   1.395556 A    
C4    C32   1.413736 A    
Zn2   N3    1.971662 S    
C29   C33   1.524328 S    
C19   C25   1.403572 A    
C36   H16   1.110650 S    
O3    C2    1.260432 A    
C33   H13   1.109996 S    
C15   N1    1.366689 A    
C13   C19   1.395630 A    
C16   N2    1.366471 A    
C14   C20   1.395802 A    
C17   C21   1.409322 A    
C23   C26   1.392084 A    
H4    C26   1.083232 S    
O4    Zn2   1.951064 S    
C8    H6    1.080886 S    
O6    C6    1.277280 A    
C16   O12   1.349967 S    
C13   O9    1.349943 S    
O4    C1    1.260434 A    
C32   C39   1.525515 S    
C14   O10   1.349673 S    
