data_mof_unit_pretest_1019.cif
_audit_creation_date              2012-12-11T14:03:48-0500
_audit_creation_method            fapswitch 2.2
_symmetry_space_group_name_H-M    P1
_symmetry_Int_Tables_number       1
_space_group_crystal_system       triclinic
_cell_length_a                    18.990078
_cell_length_b                    11.079437
_cell_length_c                    18.782715
_cell_angle_alpha                 90.001607
_cell_angle_beta                  88.809468
_cell_angle_gamma                 90.000952
_cell_volume                      3951.01836544

loop_
_atom_site_label
_atom_site_type_symbol
_atom_type_description
_atom_site_fract_x
_atom_site_fract_y
_atom_site_fract_z
_atom_type_partial_charge
C1    C     C_R   0.241536 0.465672 0.647796 0.612863
C2    C     C_R   0.039789 0.665462 0.562269 -0.035300
C3    C     C_R   0.460142 0.165478 0.437756 -0.035378
C4    C     C_R   0.539782 0.165462 0.562269 -0.034877
C5    C     C_R   0.961136 0.890805 0.439520 -0.084826
C6    C     C_R   0.038866 0.890825 0.560479 -0.084731
C7    C     C_R   0.461133 0.390809 0.439521 -0.084686
C8    C     C_R   0.538862 0.390822 0.560481 -0.084869
C9    C     C_R   0.981347 0.998606 0.469116 -0.070539
C10   C     C_R   0.018745 0.998635 0.530813 -0.070411
C11   C     C_R   0.481342 0.498610 0.469121 -0.070384
C12   C     C_R   0.758465 0.465675 0.352208 0.612399
C13   C     C_R   0.518740 0.498632 0.530818 -0.070567
C14   C     C_R   0.019620 0.777854 0.531680 -0.000108
C15   C     C_R   0.980342 0.777852 0.468342 -0.000087
C16   C     C_R   0.519614 0.277853 0.531681 -0.000056
C17   C     C_R   0.480336 0.277854 0.468343 -0.000140
C18   C     C_R   0.026147 0.558990 0.525136 0.015661
C19   C     C_R   0.973762 0.559012 0.474895 0.015749
C20   C     C_R   0.526138 0.058990 0.525138 0.015800
C21   C     C_R   0.473753 0.059012 0.474897 0.015610
C22   C     C_R   0.060161 0.449862 0.539798 -0.043103
C23   C     C_R   0.741535 0.965673 0.647794 0.612433
C24   C     C_R   0.939831 0.449881 0.460106 -0.043089
C25   C     C_R   0.560147 0.949860 0.539806 -0.043103
C26   C     C_R   0.439817 0.949883 0.460114 -0.043091
C27   C     C_R   0.031639 0.341765 0.517424 -0.099269
C28   C     C_R   0.968579 0.341764 0.482092 -0.099406
C29   C     C_R   0.531611 0.841764 0.517451 -0.099412
C30   C     C_R   0.468551 0.841766 0.482120 -0.099260
C31   C     C_2   0.256704 0.935235 0.913898 -0.104497
C32   C     C_2   0.743409 0.935148 0.086046 -0.106236
C33   C     C_2   0.756599 0.435146 0.913952 -0.106222
C34   C     C_R   0.258464 0.965673 0.352206 0.612834
C35   C     C_2   0.243293 0.435216 0.086099 -0.104500
C36   C     C_2   0.272492 0.985439 0.066500 -0.105564
C37   C     C_2   0.727166 0.986051 0.933545 -0.098732
C38   C     C_2   0.772829 0.486047 0.066455 -0.098740
C39   C     C_2   0.227530 0.485397 0.933496 -0.105622
C40   C     C_R   0.227913 0.872626 0.647088 0.526523
C41   C     C_R   0.772091 0.872616 0.352918 0.526873
C42   C     C_R   0.727913 0.372626 0.647088 0.526850
C43   C     C_R   0.272091 0.372616 0.352918 0.526546
C44   C     C_2   0.235995 0.055952 0.022391 -0.156458
C45   C     C_2   0.263041 0.807228 0.528980 -0.096986
C46   C     C_2   0.764317 0.055792 0.977505 -0.160518
C47   C     C_2   0.735727 0.555839 0.022485 -0.160526
C48   C     C_2   0.263964 0.555955 0.977622 -0.156517
C49   C     C_2   0.219689 0.019505 0.949496 -0.144669
C50   C     C_2   0.780518 0.019276 0.050421 -0.148121
C51   C     C_2   0.719518 0.519331 0.949566 -0.148100
C52   C     C_2   0.280288 0.519513 0.050511 -0.144663
C53   C     C_2   0.011554 0.655166 0.927236 -0.097489
C54   C     C_2   0.011392 0.663956 0.083707 -0.101608
C55   C     C_2   0.488623 0.163961 0.916302 -0.101621
C56   C     C_2   0.736930 0.807223 0.471024 -0.097120
C57   C     C_2   0.488457 0.155163 0.072769 -0.097504
C58   C     C_2   0.025936 0.565171 0.045770 -0.164036
C59   C     C_2   0.039443 0.570409 0.969698 -0.158369
C60   C     C_2   0.460567 0.070425 0.030306 -0.158406
C61   C     C_2   0.474069 0.065188 0.954232 -0.164069
C62   C     C_R   0.060545 0.652430 0.637328 0.528726
C63   C     C_R   0.939441 0.652435 0.362671 0.528209
C64   C     C_R   0.560542 0.152430 0.637328 0.528178
C65   C     C_R   0.439438 0.152435 0.362671 0.528758
C66   C     C_R   0.224037 0.516806 0.858696 0.561043
C67   C     C_2   0.763046 0.307233 0.528982 -0.096956
C68   C     C_R   0.776040 0.517025 0.141345 0.565293
C69   C     C_R   0.723959 0.017029 0.858656 0.565283
C70   C     C_R   0.275969 0.016820 0.141307 0.561081
C71   C     C_R   0.228195 0.875869 0.851610 0.551702
C72   C     C_R   0.771825 0.875849 0.148381 0.551911
C73   C     C_R   0.728177 0.375854 0.851616 0.551908
C74   C     C_R   0.271805 0.375863 0.148386 0.551715
C75   C     C_R   0.031701 0.651456 0.852579 0.558218
C76   C     C_R   0.972410 0.652657 0.150322 0.559905
C77   C     C_R   0.527591 0.152658 0.849680 0.559893
C78   C     C_2   0.236935 0.307218 0.471025 -0.097148
C79   C     C_R   0.468304 0.151456 0.147425 0.558220
C80   C     C_2   0.250803 0.901122 0.574111 0.224033
C81   C     C_2   0.749203 0.901115 0.425899 0.224056
C82   C     C_2   0.750803 0.401125 0.574111 0.224111
C83   C     C_2   0.249203 0.401111 0.425900 0.223978
C84   C     C_2   0.234530 0.903024 0.416710 0.323734
C85   C     C_2   0.765468 0.903010 0.583295 0.324033
C86   C     C_2   0.734532 0.403023 0.416711 0.323947
C87   C     C_2   0.265470 0.403011 0.583296 0.323819
C88   C     C_2   0.274857 0.823924 0.451337 0.195590
C89   C     C_R   0.960149 0.665477 0.437756 -0.034955
C90   C     C_2   0.725131 0.823917 0.548673 0.195550
C91   C     C_2   0.774862 0.323930 0.451339 0.195661
C92   C     C_2   0.225136 0.323911 0.548675 0.195482
Cr1   Cr    Cr6+3 0.113970 0.508630 0.747920 1.041358
Cr2   Cr    Cr6+3 0.887700 0.820070 0.250200 1.020020
Cr3   Cr    Cr6+3 0.612300 0.320070 0.749800 1.020049
Cr4   Cr    Cr6+3 0.387700 0.320070 0.250200 1.022345
Cr5   Cr    Cr6+3 0.886030 0.508630 0.252080 1.041708
Cr6   Cr    Cr6+3 0.613970 0.008630 0.747920 1.041802
Cr7   Cr    Cr6+3 0.386030 0.008630 0.252080 1.041263
Cr8   Cr    Cr6+3 0.269200 0.666740 0.749850 1.033482
Cr9   Cr    Cr6+3 0.730800 0.666740 0.250150 1.036049
Cr10  Cr    Cr6+3 0.769200 0.166740 0.749850 1.036104
Cr11  Cr    Cr6+3 0.230800 0.166740 0.250150 1.033405
Cr12  Cr    Cr6+3 0.112300 0.820070 0.749800 1.022362
H1    H     H_    0.172149 0.057109 0.927169 0.157652
H2    H     H_    0.980602 0.730262 0.947827 0.101448
H3    H     H_    0.519413 0.230240 0.052181 0.101466
H4    H     H_    0.481679 0.253487 0.938997 0.112771
H5    H     H_    0.261288 0.714960 0.548638 0.139413
H6    H     H_    0.738641 0.714957 0.451357 0.139404
H7    H     H_    0.761299 0.214965 0.548639 0.139377
H8    H     H_    0.238653 0.214952 0.451359 0.139441
H9    H     H_    0.967020 0.080992 0.443332 0.112802
H10   H     H_    0.033145 0.081085 0.556518 0.113177
H11   H     H_    0.467015 0.581001 0.443341 0.112957
H12   H     H_    0.828109 0.056699 0.072742 0.158761
H13   H     H_    0.533139 0.581077 0.556527 0.113022
H14   H     H_    0.892736 0.449071 0.429839 0.182790
H15   H     H_    0.107252 0.449047 0.570077 0.182607
H16   H     H_    0.392723 0.949075 0.429845 0.182651
H17   H     H_    0.607240 0.949044 0.570083 0.182745
H18   H     H_    0.056932 0.258939 0.529384 0.129652
H19   H     H_    0.943486 0.258966 0.469714 0.129724
H20   H     H_    0.556894 0.758939 0.529431 0.129621
H21   H     H_    0.443447 0.758966 0.469763 0.129757
H22   H     H_    0.210292 0.136961 0.042810 0.139429
H23   H     H_    0.671946 0.556807 0.927232 0.158752
H24   H     H_    0.790601 0.136126 0.956943 0.140830
H25   H     H_    0.709489 0.636212 0.043038 0.140815
H26   H     H_    0.289596 0.637012 0.957225 0.139439
H27   H     H_    0.339446 0.690394 0.445523 0.342387
H28   H     H_    0.660606 0.690294 0.554543 0.342369
H29   H     H_    0.839463 0.190415 0.445530 0.342382
H30   H     H_    0.160621 0.190275 0.554550 0.342373
H31   H     H_    0.297854 0.902621 0.048907 0.097109
H32   H     H_    0.701115 0.903984 0.951269 0.103753
H33   H     H_    0.798827 0.403937 0.048742 0.103766
H34   H     H_    0.327816 0.557154 0.072844 0.157662
H35   H     H_    0.202254 0.402527 0.951067 0.097199
H36   H     H_    0.022695 0.475779 0.069426 0.155667
H37   H     H_    0.070439 0.496372 0.947635 0.149641
H38   H     H_    0.429569 0.996406 0.052368 0.149647
H39   H     H_    0.477294 0.975805 0.930570 0.155684
H40   H     H_    0.148875 0.869784 0.471229 0.313937
H41   H     H_    0.851112 0.869727 0.528771 0.313982
H42   H     H_    0.648878 0.369774 0.471231 0.313969
H43   H     H_    0.351115 0.369736 0.528774 0.313949
H44   H     H_    0.257173 0.070570 0.594765 0.344862
H45   H     H_    0.306415 0.901898 0.933455 0.093956
H46   H     H_    0.742929 0.070581 0.405267 0.345041
H47   H     H_    0.757155 0.570577 0.594763 0.344965
H48   H     H_    0.242909 0.570574 0.405265 0.344938
H49   H     H_    0.927252 0.901724 0.396539 0.190151
H50   H     H_    0.072728 0.901749 0.603477 0.190049
H51   H     H_    0.427253 0.401730 0.396537 0.190034
H52   H     H_    0.572728 0.401744 0.603476 0.190165
H53   H     H_    0.693700 0.901817 0.066521 0.100199
H54   H     H_    0.806293 0.401770 0.933490 0.100199
H55   H     H_    0.193588 0.401852 0.066535 0.093957
H56   H     H_    0.018352 0.753487 0.061019 0.112752
O1    O     O_R   0.043230 0.549300 0.667990 -0.493475
O2    O     O_R   0.832470 0.905110 0.169660 -0.504566
O3    O     O_R   0.667530 0.405110 0.830340 -0.504552
O4    O     O_R   0.332470 0.405110 0.169660 -0.503989
O5    O     O_R   0.054010 0.748440 0.822860 -0.485267
O6    O     O_R   0.945990 0.748440 0.177140 -0.490477
O7    O     O_R   0.554010 0.248440 0.822860 -0.490468
O8    O     O_R   0.445990 0.248440 0.177140 -0.485264
O9    O     O_3   0.165160 0.665150 0.749190 -0.305905
O10   O     O_3   0.834840 0.665150 0.250810 -0.304717
O11   O     O_3   0.665160 0.165150 0.749190 -0.304728
O12   O     O_R   0.956770 0.549300 0.332010 -0.495749
O13   O     O_3   0.334840 0.165150 0.250810 -0.305904
O14   O     O_R   0.178620 0.457600 0.674100 -0.507528
O15   O     O_R   0.821380 0.457600 0.325900 -0.508173
O16   O     O_R   0.678620 0.957600 0.674100 -0.508088
O17   O     O_R   0.321380 0.957600 0.325900 -0.507612
O18   O     O_R   0.284680 0.542100 0.669460 -0.478821
O19   O     O_R   0.715320 0.542100 0.330540 -0.478855
O20   O     O_R   0.784680 0.042100 0.669460 -0.478832
O21   O     O_R   0.215320 0.042100 0.330540 -0.478842
O22   O     O_R   0.262860 0.790390 0.676650 -0.511488
O23   O     O_R   0.543230 0.049300 0.667990 -0.495707
O24   O     O_R   0.737140 0.790390 0.323350 -0.511197
O25   O     O_R   0.762860 0.290390 0.676650 -0.511172
O26   O     O_R   0.237140 0.290390 0.323350 -0.511513
O27   O     O_R   0.167460 0.907030 0.670940 -0.536930
O28   O     O_R   0.832540 0.907030 0.329060 -0.536895
O29   O     O_R   0.667460 0.407030 0.670940 -0.536903
O30   O     O_R   0.332540 0.407030 0.329060 -0.536921
O31   O     O_R   0.053950 0.750220 0.675100 -0.508166
O32   O     O_R   0.946050 0.750220 0.324900 -0.509539
O33   O     O_R   0.553950 0.250220 0.675100 -0.509545
O34   O     O_R   0.456770 0.049300 0.332010 -0.493517
O35   O     O_R   0.446050 0.250220 0.324900 -0.508162
O36   O     O_R   0.043300 0.547370 0.827390 -0.512468
O37   O     O_R   0.956700 0.547370 0.172610 -0.513933
O38   O     O_R   0.543300 0.047370 0.827390 -0.513936
O39   O     O_R   0.456700 0.047370 0.172610 -0.512475
O40   O     O_R   0.178690 0.455820 0.821860 -0.499510
O41   O     O_R   0.821310 0.455820 0.178140 -0.493965
O42   O     O_R   0.678690 0.955820 0.821860 -0.493971
O43   O     O_R   0.321310 0.955820 0.178140 -0.499503
O44   O     O_R   0.284750 0.540170 0.828860 -0.499041
O45   O     O_R   0.262920 0.788600 0.824420 -0.518619
O46   O     O_R   0.715250 0.540170 0.171140 -0.501191
O47   O     O_R   0.784750 0.040170 0.828860 -0.501204
O48   O     O_R   0.215250 0.040170 0.171140 -0.499064
O49   O     O_3   0.323817 0.756061 0.413732 -0.740683
O50   O     O_3   0.676179 0.756058 0.586294 -0.740713
O51   O     O_3   0.823828 0.256073 0.413736 -0.740810
O52   O     O_3   0.176189 0.256046 0.586298 -0.740586
O53   O     O_3   0.169540 0.938560 0.444398 -0.686718
O54   O     O_3   0.830468 0.938503 0.555618 -0.686450
O55   O     O_3   0.669539 0.438550 0.444397 -0.686579
O56   O     O_R   0.737080 0.788600 0.175580 -0.517136
O57   O     O_3   0.330468 0.438512 0.555617 -0.686589
O58   O     O_3   0.259769 0.018779 0.551787 -0.716150
O59   O     O_3   0.740298 0.018779 0.448237 -0.716024
O60   O     O_3   0.759757 0.518784 0.551786 -0.716075
O61   O     O_3   0.240286 0.518774 0.448236 -0.716099
O62   O     O_R   0.762920 0.288600 0.824420 -0.517149
O63   O     O_R   0.237080 0.288600 0.175580 -0.518624
O64   O     O_R   0.167530 0.905110 0.830340 -0.504001

loop_
_geom_bond_atom_site_label_1
_geom_bond_atom_site_label_2
_ccdc_geom_bond_type
C44   C49   S    
C1    C87   S    
C74   O4    A    
C21   C26   A    
C35   C74   S    
C8    C13   A    
Cr5   O15   S    
C37   C69   S    
C2    C18   A    
C43   C83   S    
C57   C79   S    
C42   C82   S    
C3    C21   A    
Cr8   O18   S    
Cr2   O6    S    
H44   O58   S    
C53   C59   D    
C28   H19   S    
C56   C81   D    
C32   C72   S    
C40   O27   A    
C3    C65   S    
C33   H54   S    
C7    C11   A    
Cr7   O34   S    
Cr1   O9    S    
Cr5   O12   S    
C73   O62   A    
C47   H25   S    
H43   O57   S    
C46   H24   S    
Cr2   O28   S    
Cr7   O17   S    
C48   C52   S    
C86   C91   D    
C76   O37   A    
C54   C58   D    
H40   O53   S    
C55   C77   S    
C45   H5    S    
C62   O1    A    
C15   C89   A    
C20   C25   A    
C65   O34   A    
Cr9   O56   S    
C70   O48   A    
C63   O32   A    
C81   O59   S    
C29   H20   S    
Cr1   O14   S    
Cr11  O13   S    
Cr10  O20   S    
C58   H36   S    
C34   O21   A    
C18   C19   A    
Cr4   O30   S    
Cr6   O23   S    
C86   O55   S    
C44   H22   S    
C14   C15   A    
C60   H38   S    
Cr12  O5    S    
C64   O23   A    
C53   H2    S    
C61   H39   S    
Cr4   O35   S    
C43   O30   A    
C16   C17   A    
C7    C17   A    
H27   O49   S    
C52   H34   S    
H46   O59   S    
Cr4   O8    S    
C41   O24   A    
C76   O6    A    
C79   O8    A    
Cr8   O22   S    
Cr10  O47   S    
Cr2   O2    S    
H42   O55   S    
C10   H10   S    
C66   O44   A    
C75   O36   A    
C56   C90   S    
C68   O41   A    
C30   H21   S    
C69   O42   A    
Cr3   O33   S    
C18   C22   A    
C87   C92   D    
C48   H26   S    
Cr11  O63   S    
C53   C75   S    
Cr11  O26   S    
C34   C84   S    
C31   C49   D    
C2    C14   A    
C78   C83   D    
C56   H6    S    
C27   H18   S    
C36   C70   S    
C40   O22   A    
C25   C29   A    
C22   H15   S    
C39   H35   S    
C1    O14   A    
C69   O47   A    
Cr10  O25   S    
C79   O39   A    
Cr4   O13   S    
Cr6   O38   S    
Cr5   O37   S    
C45   C88   S    
H28   O50   S    
Cr11  O48   S    
C91   O51   S    
Cr5   O41   S    
C90   O50   S    
C57   C60   D    
C47   C51   S    
C23   O16   A    
C43   O26   A    
C78   C92   S    
C58   C59   S    
Cr12  O31   S    
C74   O63   A    
C5    H49   S    
Cr5   O10   S    
Cr4   O4    S    
C41   O28   A    
C60   C61   S    
C83   O61   S    
C4    C16   A    
C5    C9    A    
C29   C30   A    
C19   C89   A    
Cr3   O3    S    
Cr9   O19   S    
C6    C14   A    
Cr2   O32   S    
Cr6   O16   S    
C1    O18   A    
C13   H13   S    
Cr7   O13   S    
Cr1   O1    S    
C85   C90   D    
C41   C81   S    
C64   O33   A    
Cr1   O40   S    
C67   C91   S    
C23   O20   A    
C37   H32   S    
C82   O60   S    
Cr9   O10   S    
C75   O5    A    
C40   C80   S    
Cr10  O11   S    
C32   C50   D    
C38   C47   D    
C6    H50   S    
Cr9   O24   S    
C12   O15   A    
C54   C76   S    
Cr6   O11   S    
C42   O25   A    
C67   H7    S    
C72   O56   A    
H30   O52   S    
C38   C68   S    
C26   C30   A    
C88   O49   S    
C68   O46   A    
H29   O51   S    
C39   C66   S    
C92   O52   S    
Cr1   O36   S    
C77   O7    A    
Cr8   O44   S    
C36   H31   S    
C35   C52   D    
C11   H11   S    
C84   O53   S    
Cr10  O62   S    
C24   C28   A    
C32   H53   S    
C9    C10   A    
C33   C73   S    
C70   O43   A    
Cr12  O27   S    
C46   C50   S    
C71   O64   A    
Cr7   O43   S    
Cr8   O9    S    
Cr11  O21   S    
Cr6   O42   S    
C84   C88   D    
C77   O38   A    
C26   H16   S    
Cr3   O7    S    
C6    C10   A    
C49   H1    S    
Cr8   O45   S    
C62   O31   A    
C33   C51   D    
C4    C64   S    
C24   H14   S    
C12   C86   S    
C55   H4    S    
C22   C27   A    
C51   H23   S    
C19   C24   A    
C9    H9    S    
C73   O3    A    
C85   O54   S    
Cr2   O10   S    
C80   O58   S    
C11   C13   A    
C42   O29   A    
C63   O12   A    
Cr3   O11   S    
C31   H45   S    
C55   C61   D    
C31   C71   S    
C38   H33   S    
C3    C17   A    
C45   C80   D    
C50   H12   S    
C63   C89   S    
C87   O57   S    
C8    H52   S    
C35   H55   S    
C5    C15   A    
C36   C44   D    
Cr9   O46   S    
Cr3   O29   S    
C54   H56   S    
H41   O54   S    
C4    C20   A    
C71   O45   A    
C12   O19   A    
C7    H51   S    
C20   C21   A    
C59   H37   S    
C67   C82   D    
C8    C16   A    
C23   C85   S    
Cr7   O39   S    
C27   C28   A    
C57   H3    S    
C72   O2    A    
H47   O60   S    
C39   C48   D    
C34   O17   A    
C78   H8    S    
C37   C46   D    
H48   O61   S    
C25   H17   S    
Cr12  O64   S    
C66   O40   A    
C2    C62   S    
Cr12  O9    S    
C65   O35   A    
