data_mof_unit_pretest_487.cif
_audit_creation_date              2012-12-10T19:01:24-0500
_audit_creation_method            fapswitch 2.2
_symmetry_space_group_name_H-M    P1
_symmetry_Int_Tables_number       1
_space_group_crystal_system       triclinic
_cell_length_a                    9.633667
_cell_length_b                    10.853896
_cell_length_c                    15.615167
_cell_angle_alpha                 86.912984
_cell_angle_beta                  74.25297
_cell_angle_gamma                 90.322781
_cell_volume                      1568.85834981

loop_
_atom_site_label
_atom_site_type_symbol
_atom_type_description
_atom_site_fract_x
_atom_site_fract_y
_atom_site_fract_z
_atom_type_partial_charge
C1    C     C_R   0.998999 0.262526 0.501292 0.831587
C2    C     C_R   0.667599 0.483643 0.905129 0.020465
C3    C     C_R   0.762387 0.444042 0.956129 -0.012120
C4    C     C_R   0.517589 0.497459 0.948348 -0.032255
C5    C     C_R   0.472891 0.491790 0.043403 -0.088235
C6    C     C_R   0.580284 0.485337 0.089947 0.350436
C7    C     C_R   0.717480 0.442923 0.049077 0.395618
C8    C     C_R   0.409691 0.517804 0.902260 0.277220
C9    C     C_R   0.272670 0.555015 0.948397 -0.201496
C10   C     C_R   0.230604 0.551513 0.041222 0.006913
C11   C     C_R   0.324143 0.503692 0.089348 0.046352
C12   C     C_R   0.918037 0.497925 0.672037 0.825980
C13   C     C_R   0.094108 0.591417 0.086456 -0.212126
C14   C     C_R   0.048153 0.582340 0.180065 0.396519
C15   C     C_R   0.263972 0.467597 0.181026 0.168570
C16   C     C_R   0.121922 0.064704 0.503836 0.165677
C17   C     C_R   0.995169 0.128725 0.508957 -0.169481
C18   C     C_R   0.864242 0.061677 0.525984 -0.180016
C19   C     C_R   0.864526 0.932909 0.526759 -0.182943
C20   C     C_R   0.995671 0.870045 0.511056 -0.177767
C21   C     C_R   0.121909 0.937248 0.506288 0.110617
C22   C     C_3   0.264502 0.935368 0.438431 0.181307
C23   C     C_R   0.999383 0.737365 0.501922 0.810857
C24   C     C_3   0.262048 0.075574 0.432967 0.125292
C25   C     C_R   0.593739 0.592301 0.455311 0.093942
C26   C     C_R   0.551370 0.412139 0.548505 0.444090
C27   C     C_R   0.404058 0.413477 0.549260 0.418263
C28   C     C_R   0.446418 0.592095 0.455180 0.265419
C29   C     C_3   0.485160 0.616281 0.357353 0.164572
C30   C     C_3   0.641940 0.619233 0.357436 -0.440772
C31   C     C_R   0.082440 0.502387 0.327614 0.876892
C32   C     C_R   0.871221 0.485584 0.770644 -0.091553
C33   C     C_R   0.129920 0.514795 0.228220 -0.157878
C34   C     C_R   0.905962 0.417716 0.913559 -0.237306
C35   C     C_R   0.960093 0.435247 0.821026 0.395129
C36   C     C_R   0.729396 0.515799 0.814211 -0.222052
Cu1   Cu    Cu3+1 0.140670 0.499980 0.500000 1.071362
Cu2   Cu    Cu3+1 0.859330 0.500020 0.500000 0.989298
H1    H     H_    0.025597 0.634252 0.049064 0.154835
H2    H     H_    0.762684 0.108288 0.534781 0.220345
H3    H     H_    0.763147 0.883491 0.535665 0.193852
H4    H     H_    0.259527 0.892541 0.376273 0.125687
H5    H     H_    0.250999 0.117157 0.368477 0.112016
H6    H     H_    0.451430 0.537849 0.324847 0.214728
H7    H     H_    0.701691 0.541388 0.322085 0.242090
H8    H     H_    0.695007 0.711918 0.340252 0.231991
H9    H     H_    0.195084 0.579202 0.911630 0.180787
H10   H     H_    0.977848 0.385262 0.952205 0.195631
H11   H     H_    0.671577 0.570787 0.776638 0.208824
N1    N     N_R   0.648210 0.500930 0.499430 -0.265701
N2    N     N_R   0.352300 0.500890 0.499430 -0.301634
O1    O     O_R   0.118810 0.319640 0.500000 -0.523371
O2    O     O_R   0.881230 0.319680 0.499990 -0.600189
O3    O     O_R   0.055580 0.499970 0.629840 -0.499863
O4    O     O_R   0.818000 0.500010 0.629830 -0.614676
O5    O     O_R   0.118770 0.680320 0.500010 -0.537806
O6    O     O_R   0.881190 0.680360 0.500000 -0.577687
O7    O     O_R   0.182000 0.499990 0.370170 -0.569610
O8    O     O_R   0.944420 0.500030 0.370160 -0.545128
O9    O     O_3   0.815341 0.415596 0.097576 -0.732965
H12   H     H_    0.764515 0.409004 0.162041 0.375528
O10   O     O_3   0.369785 0.887614 0.477175 -0.616318
H13   H     H_    0.463867 0.903762 0.432262 0.354368
O11   O     O_3   0.370709 0.130412 0.463024 -0.622035
H14   H     H_    0.455087 0.142316 0.410047 0.334804
O12   O     O_3   0.593174 0.315179 0.595601 -0.676803
H15   H     H_    0.675024 0.342147 0.616155 0.380663
Br1   Br    Br    0.282091 0.288130 0.624804 -0.263649
Br2   Br    Br    0.343539 0.330168 0.235069 -0.550687
O13   O     O_3   0.436461 0.730487 0.333333 -0.733084
H16   H     H_    0.492552 0.752103 0.271038 0.329031
O14   O     O_3   0.925230 0.640007 0.225212 -0.748163
H17   H     H_    0.881412 0.683387 0.181736 0.331923
O15   O     O_3   0.100000 0.406348 0.779673 -0.653719
H18   H     H_    0.142088 0.361591 0.823404 0.357244
O16   O     O_3   0.561658 0.536952 0.170431 -0.759161
H19   H     H_    0.491462 0.603990 0.173517 0.319286
Br3   Br    Br    0.425799 0.478338 0.781306 -0.497760

loop_
_geom_bond_atom_site_label_1
_geom_bond_atom_site_label_2
_ccdc_geom_bond_type
C8    C9    A    
C35   O15   S    
C16   C21   A    
C30   H7    S    
C19   C20   A    
C4    C8    A    
C14   C33   A    
C23   O5    A    
C25   C28   A    
C26   C27   A    
Cu1   Cu2   S    
C32   C36   A    
C31   O7    A    
C28   C29   S    
C5    C11   A    
C3    C7    A    
C26   N1    A    
C5    C6    A    
Cu1   N2    S    
C28   N2    A    
C18   C19   A    
C31   O8    A    
C1    O2    A    
C25   N1    A    
C18   H2    S    
C27   Br1   S    
Cu1   O5    S    
C11   C15   A    
Cu2   O4    S    
C16   C17   A    
C31   C33   S    
O13   H16   S    
C9    C10   A    
Cu1   O7    S    
O12   H15   S    
C24   O11   S    
C21   C22   S    
C12   C32   S    
C8    Br3   S    
C34   C35   A    
C27   N2    A    
C15   Br2   S    
O15   H18   S    
C26   O12   S    
C32   C35   A    
O16   H19   S    
Cu1   O1    S    
O14   H17   S    
C3    C34   A    
O9    H12   S    
C2    C4    A    
C29   C30   S    
C22   O10   S    
Cu2   O6    S    
C20   C23   S    
O10   H13   S    
C17   C18   A    
Cu1   O3    S    
C9    H9    S    
C29   H6    S    
C22   C24   S    
C34   H10   S    
C7    O9    S    
C29   O13   S    
C2    C36   A    
C25   C30   S    
C23   O6    A    
C14   O14   S    
C30   H8    S    
C4    C5    A    
C10   C13   A    
C6    O16   S    
C6    C7    A    
Cu2   N1    S    
C1    C17   S    
O11   H14   S    
C2    C3    A    
C22   H4    S    
Cu2   O2    S    
C1    O1    A    
C13   H1    S    
C12   O4    A    
C10   C11   A    
Cu2   O8    S    
C20   C21   A    
C16   C24   S    
C24   H5    S    
C13   C14   A    
C15   C33   A    
C12   O3    A    
C36   H11   S    
C19   H3    S    
