data_mof_unit_pretest_1187.cif
_audit_creation_date              2012-12-11T15:54:08-0500
_audit_creation_method            fapswitch 2.2
_symmetry_space_group_name_H-M    P1
_symmetry_Int_Tables_number       1
_space_group_crystal_system       triclinic
_cell_length_a                    10.688085
_cell_length_b                    10.73198
_cell_length_c                    17.061319
_cell_angle_alpha                 80.389316
_cell_angle_beta                  99.399504
_cell_angle_gamma                 118.796522
_cell_volume                      1683.12519857

loop_
_atom_site_label
_atom_site_type_symbol
_atom_type_description
_atom_site_fract_x
_atom_site_fract_y
_atom_site_fract_z
_atom_type_partial_charge
Br1   Br    Br    0.588947 0.124830 0.185849 -0.429019
Br2   Br    Br    0.756092 0.909295 0.292135 -0.445837
C1    C     C_R   0.384331 0.284004 0.631858 0.527135
C2    C     C_1   0.333343 0.186985 0.781508 -0.026945
C3    C     C_1   0.336408 0.663622 0.277648 -0.012336
C4    C     C_R   0.412775 0.620860 0.601754 0.542160
C5    C     C_1   0.323603 0.672735 0.206927 -0.009735
C6    C     C_R   0.871012 0.686684 0.167537 -0.007932
C7    C     C_R   0.931301 0.619324 0.226590 -0.005956
C8    C     C_R   0.916188 0.612575 0.305405 -0.013858
C9    C     C_R   0.819532 0.779482 0.270568 0.112408
C10   C     C_R   0.828882 0.778861 0.190219 -0.139528
C11   C     C_3   0.919544 0.473985 0.235005 -0.230300
C12   C     C_R   0.511936 0.708913 0.735271 -0.149621
C13   C     C_3   0.900425 0.464290 0.322278 -0.242661
C14   C     C_R   0.845742 0.679503 0.328161 0.024706
C15   C     C_R   0.338192 0.182247 0.155626 0.016038
C16   C     C_R   0.776408 0.618605 0.626988 0.553178
C17   C     C_R   0.255045 0.234368 0.179840 -0.009318
C18   C     C_R   0.263554 0.252577 0.258268 -0.038437
C19   C     C_R   0.452357 0.186151 0.290968 -0.127988
C20   C     C_R   0.449520 0.173137 0.210749 0.120750
C21   C     C_3   0.095627 0.183276 0.169645 -0.037050
C22   C     C_3   0.108384 0.210673 0.255621 -0.222302
C23   C     C_R   0.489867 0.724444 0.810989 -0.134665
C24   C     C_R   0.348736 0.211378 0.315792 -0.016032
C25   C     C_R   0.891406 0.701912 0.855937 0.546420
C26   C     C_R   0.315805 0.706224 0.898450 0.559082
C27   C     C_R   0.286434 0.118465 0.858370 0.553515
C28   C     C_R   0.355002 0.234575 0.396955 0.565452
C29   C     C_R   0.894007 0.693812 0.086198 0.549805
C30   C     C_R   0.313012 0.700535 0.123805 0.571341
C31   C     C_R   0.287594 0.109972 0.084062 0.563341
C32   C     C_R   0.365585 0.654016 0.360690 0.572791
C33   C     C_R   0.773969 0.624903 0.400474 0.583750
C34   C     C_3   0.089659 0.509405 0.767776 -0.241495
C35   C     C_R   0.350749 0.652302 0.836538 0.034877
C36   C     C_R   0.243193 0.544818 0.792159 0.003004
C37   C     C_R   0.264821 0.530840 0.717101 -0.005533
C38   C     C_2   0.049381 0.276087 0.109261 0.581992
C39   C     C_2   0.100875 0.605615 0.621293 0.605069
C40   C     C_3   0.113346 0.494888 0.684833 -0.055990
C41   C     C_R   0.395488 0.620924 0.684750 0.019179
C42   C     C_1   0.822187 0.656304 0.706165 -0.044743
C43   C     C_1   0.849959 0.684497 0.773818 -0.051130
C44   C     C_1   0.364573 0.233766 0.714298 -0.032641
Cr1   Cr    Cr6+3 0.608440 0.389080 0.519680 1.055156
Cr2   Cr    Cr6+3 0.288640 0.400090 0.490760 1.037960
Cr3   Cr    Cr6+3 0.602940 0.710800 0.489510 1.078625
Cr4   Cr    Cr6+3 0.052530 0.947560 0.964210 1.044886
Cr5   Cr    Cr6+3 0.059970 0.626800 0.992920 1.059767
Cr6   Cr    Cr6+3 0.373320 0.938440 0.995370 1.096143
H1    H     H_    0.617027 0.773785 0.714059 0.136653
H2    H     H_    0.068374 0.599906 0.771115 0.175488
H3    H     H_    0.015066 0.406098 0.798804 0.137948
H4    H     H_    0.051535 0.383480 0.668146 0.122434
H5    H     H_    0.799147 0.846974 0.145542 0.172009
H6    H     H_    0.021566 0.478184 0.225230 0.154635
H7    H     H_    0.892899 0.329809 0.065917 0.348143
H8    H     H_    0.151956 0.812702 0.587983 0.344691
H9    H     H_    0.822777 0.399243 0.200176 0.219172
H10   H     H_    0.791694 0.381073 0.337217 0.175975
H11   H     H_    0.990781 0.460125 0.363333 0.169797
H12   H     H_    0.531368 0.170515 0.334047 0.166631
H13   H     H_    0.031027 0.067897 0.161544 0.135379
H14   H     H_    0.092067 0.302126 0.263727 0.153558
H15   H     H_    0.051861 0.112315 0.295887 0.181287
H16   H     H_    0.578325 0.803315 0.845632 0.144613
O1    O     O_R   0.754020 0.497590 0.609930 -0.487669
O2    O     O_R   0.406180 0.826930 0.920660 -0.518402
O3    O     O_R   0.358620 0.062870 0.901950 -0.491630
O4    O     O_R   0.481420 0.271390 0.600630 -0.476893
O5    O     O_R   0.163910 0.085460 0.050210 -0.515632
O6    O     O_R   0.935200 0.815170 0.045770 -0.511996
O7    O     O_R   0.916120 0.596690 0.069430 -0.517979
O8    O     O_R   0.192310 0.631200 0.086170 -0.482631
O9    O     O_R   0.406770 0.819480 0.096420 -0.459040
O10   O     O_R   0.359170 0.055960 0.064880 -0.456841
O11   O     O_3   0.161940 0.837600 0.984160 -0.275658
O12   O     O_R   0.295080 0.533620 0.397890 -0.514609
O13   O     O_R   0.263810 0.254550 0.589590 -0.502241
O14   O     O_R   0.300820 0.531200 0.560890 -0.491505
O15   O     O_R   0.491480 0.744020 0.564270 -0.487544
O16   O     O_R   0.726290 0.693800 0.583010 -0.523852
O17   O     O_R   0.747830 0.500190 0.434090 -0.501548
O18   O     O_R   0.475680 0.273800 0.437630 -0.501121
O19   O     O_R   0.257620 0.257160 0.413750 -0.507276
O20   O     O_2   0.126312 0.355133 0.057323 -0.496180
O21   O     O_R   0.914306 0.265505 0.110503 -0.668541
O22   O     O_2   0.032690 0.568858 0.557069 -0.492760
O23   O     O_R   0.485280 0.746620 0.388440 -0.444490
O24   O     O_R   0.168434 0.749574 0.635307 -0.693544
O25   O     O_R   0.720550 0.696220 0.420010 -0.457535
O26   O     O_3   0.500010 0.499990 0.499980 -0.316122
O27   O     O_R   0.163320 0.092900 0.874450 -0.500763
O28   O     O_R   0.934650 0.822080 0.882840 -0.493715
O29   O     O_R   0.915520 0.604140 0.893670 -0.518043
O30   O     O_R   0.191760 0.638110 0.923230 -0.480132

loop_
_geom_bond_atom_site_label_1
_geom_bond_atom_site_label_2
_ccdc_geom_bond_type
Cr5   O29   S    
C19   C24   A    
C4    O14   A    
C39   C40   S    
C34   C40   S    
C17   C18   A    
Cr4   O11   S    
C2    C44   T    
Cr2   O26   S    
Cr1   O17   S    
Cr3   O16   S    
Cr5   O7    S    
C8    C13   S    
Cr4   O6    S    
C14   C33   S    
C36   C37   A    
C31   O10   A    
C21   C38   S    
Cr2   O13   S    
H7    O21   S    
C7    C11   S    
C32   O23   A    
Cr1   O1    S    
C19   H12   S    
C22   H15   S    
C23   C35   A    
C30   O9    A    
C13   H10   S    
C18   C22   S    
C6    C7    A    
C1    O13   A    
C16   O16   A    
C21   C22   S    
C5    C30   S    
C38   O21   S    
C28   O18   A    
Cr6   O11   S    
C7    C8    A    
C2    C27   S    
C22   H14   S    
C40   H4    S    
C25   C43   S    
C16   O1    A    
H8    O24   S    
C39   O22   D    
Br1   C20   S    
C19   C20   A    
C25   O28   A    
C23   H16   S    
C15   C31   S    
Cr3   O23   S    
Cr6   O10   S    
Br2   C9    S    
C37   C40   S    
C33   O25   A    
C21   H13   S    
Cr1   O18   S    
C34   H2    S    
Cr5   O8    S    
Cr4   O5    S    
C3    C5    T    
C29   O6    A    
C37   C41   A    
C11   H6    S    
C17   C21   S    
C35   C36   A    
C16   C42   S    
C9    C14   A    
C29   O7    A    
C6    C10   A    
C3    C32   S    
C39   O24   S    
Cr2   O19   S    
C10   H5    S    
C31   O5    A    
C24   C28   S    
C4    C41   S    
C11   C13   S    
Cr3   O26   S    
Cr6   O9    S    
C42   C43   T    
C27   O27   A    
C26   O30   A    
C25   O29   A    
C4    O15   A    
C6    C29   S    
C26   O2    A    
C32   O12   A    
C30   O8    A    
C9    C10   A    
C1    C44   S    
C15   C20   A    
Cr3   O15   S    
C34   C36   S    
C1    O4    A    
Cr6   O3    S    
C8    C14   A    
Cr2   O12   S    
C33   O17   A    
Cr4   O28   S    
C18   C24   A    
C26   C35   S    
Cr5   O30   S    
C15   C17   A    
Cr1   O26   S    
Cr2   O14   S    
C12   C23   A    
Cr4   O27   S    
Cr5   O11   S    
Cr1   O4    S    
Cr6   O2    S    
C12   H1    S    
C11   H9    S    
C34   H3    S    
C13   H11   S    
Cr3   O25   S    
C28   O19   A    
C38   O20   D    
C12   C41   A    
C27   O3    A    
