data_mof_unit_pretest_396.cif
_audit_creation_date              2012-12-10T17:25:33-0500
_audit_creation_method            fapswitch 2.2
_symmetry_space_group_name_H-M    P1
_symmetry_Int_Tables_number       1
_space_group_crystal_system       triclinic
_cell_length_a                    10.245924
_cell_length_b                    10.501296
_cell_length_c                    23.410288
_cell_angle_alpha                 91.812166
_cell_angle_beta                  81.310454
_cell_angle_gamma                 94.036606
_cell_volume                      2483.18911362

loop_
_atom_site_label
_atom_site_type_symbol
_atom_type_description
_atom_site_fract_x
_atom_site_fract_y
_atom_site_fract_z
_atom_type_partial_charge
C1    C     C_R   0.553526 0.734405 0.493729 0.914283
C2    C     C_R   0.598868 0.474762 0.282344 -0.106271
C3    C     C_R   0.408765 0.587069 0.769266 0.144882
C4    C     C_R   0.578398 0.471356 0.224248 0.155250
C5    C     C_R   0.501817 0.519561 0.792368 0.163444
C6    C     C_R   0.455213 0.499633 0.209964 0.179320
C7    C     C_2   0.576891 0.870167 0.481463 0.012756
C8    C     C_2   0.421243 0.129149 0.494920 -0.018340
C9    C     C_2   0.493102 0.927151 0.452008 -0.111522
C10   C     C_2   0.492822 0.065269 0.451111 -0.152647
C11   C     C_2   0.923188 0.492816 0.512379 -0.069881
C12   C     C_R   0.446310 0.265748 0.501593 0.900012
C13   C     C_2   0.068920 0.470461 0.504365 -0.081203
C14   C     C_R   0.500733 0.504419 0.610581 0.908484
C15   C     C_R   0.499509 0.500067 0.388995 1.011136
C16   C     C_R   0.394330 0.405171 0.122321 0.647146
C17   C     C_R   0.539589 0.620686 0.882114 0.620731
C18   C     C_R   0.481716 0.621876 0.123893 0.583348
C19   C     C_R   0.426436 0.414172 0.881790 0.594641
C20   C     C_R   0.479687 0.632790 0.064308 -0.080582
C21   C     C_R   0.399163 0.415125 0.942532 -0.079224
C22   C     C_R   0.434743 0.523329 0.033680 -0.032110
C23   C     C_R   0.597409 0.451741 0.756088 -0.023665
C24   C     C_R   0.447144 0.523551 0.972988 -0.026808
C25   C     C_R   0.380702 0.412077 0.063652 -0.105747
C26   C     C_R   0.510524 0.631115 0.942683 -0.109494
C27   C     C_R   0.522355 0.747357 0.034294 0.158853
C28   C     C_R   0.323939 0.313864 0.973700 0.153279
C29   C     C_R   0.540514 0.745398 0.973500 -0.108783
C30   C     C_R   0.316793 0.311577 0.034159 -0.113921
C31   C     C_2   0.130883 0.682298 0.531113 1.041574
C32   C     C_2   0.894380 0.405952 0.419973 1.063521
C33   C     C_2   0.581354 0.866592 0.942991 1.057312
C34   C     C_R   0.350187 0.529879 0.253072 -0.058077
C35   C     C_2   0.233229 0.208384 0.066321 1.058163
C36   C     C_2   0.700364 0.382426 0.778723 1.007213
C37   C     C_2   0.220264 0.567599 0.239671 0.954685
C38   C     C_2   0.320752 0.669667 0.685566 1.020595
C39   C     C_2   0.732764 0.455802 0.294997 1.007696
C40   C     C_2   0.565076 0.126304 0.397909 1.009203
C41   C     C_2   0.405844 0.857124 0.414795 0.962195
C42   C     C_2   0.104967 0.341829 0.483137 0.988719
C43   C     C_2   0.870482 0.552917 0.568252 0.974811
C44   C     C_R   0.594291 0.448871 0.696672 -0.202973
C45   C     C_R   0.369918 0.527872 0.310483 -0.163865
C46   C     C_R   0.501933 0.515120 0.673068 -0.175450
C47   C     C_R   0.492371 0.501104 0.326250 -0.101349
C48   C     C_R   0.410667 0.588087 0.709402 -0.120151
H1    H     H_    0.663493 0.393414 0.668368 0.238522
H2    H     H_    0.885525 0.341775 0.285333 0.361872
H3    H     H_    0.711188 0.114960 0.330040 0.399317
H4    H     H_    0.231372 0.845195 0.384366 0.386512
H5    H     H_    0.203149 0.234041 0.420217 0.360220
H6    H     H_    0.781336 0.701055 0.610550 0.348782
H7    H     H_    0.287656 0.549202 0.343362 0.238391
H8    H     H_    0.051690 0.835004 0.502955 0.387202
H9    H     H_    0.031448 0.431183 0.348981 0.351566
H10   H     H_    0.531135 0.004800 0.894130 0.373646
H11   H     H_    0.200880 0.019974 0.081450 0.367353
H12   H     H_    0.842679 0.256893 0.762515 0.377826
H13   H     H_    0.089717 0.567479 0.183087 0.374836
H14   H     H_    0.132604 0.711307 0.682537 0.384949
I1    I     I_    0.547794 0.930991 0.077368 -0.031946
I2    I     I_    0.202233 0.170751 0.933822 -0.044104
I3    I     I_    0.266072 0.689258 0.826330 -0.111806
I4    I     I_    0.736025 0.433744 0.155707 -0.144188
I5    I     I_    0.293691 0.038595 0.563742 -0.097614
I6    I     I_    0.728384 0.974695 0.519603 -0.106444
N1    N     N_R   0.442020 0.509330 0.150524 -0.337924
N2    N     N_R   0.492871 0.516320 0.853738 -0.337201
N3    N     N_2   0.842710 0.448880 0.476480 -0.202218
N4    N     N_2   0.157290 0.551120 0.523520 -0.206099
O1    O     O_R   0.431060 0.692470 0.504730 -0.613873
O2    O     O_2   0.614441 0.712696 0.851094 -0.503506
O3    O     O_2   0.529183 0.719267 0.155244 -0.492588
O4    O     O_2   0.391335 0.311699 0.850157 -0.505805
O5    O     O_2   0.172895 0.744313 0.570131 -0.574899
O6    O     O_R   0.062625 0.741373 0.492877 -0.758030
O7    O     O_2   0.841814 0.311181 0.399224 -0.598624
O8    O     O_R   0.001615 0.473851 0.387711 -0.747808
O9    O     O_2   0.692451 0.916848 0.943753 -0.550787
O10   O     O_R   0.492436 0.922330 0.913135 -0.729298
O11   O     O_2   0.136803 0.234883 0.101047 -0.539645
O12   O     O_R   0.568940 0.307530 0.495270 -0.603233
O13   O     O_R   0.265046 0.081423 0.056932 -0.749039
O14   O     O_2   0.721489 0.400097 0.828480 -0.591093
O15   O     O_R   0.775498 0.297581 0.742474 -0.752181
O16   O     O_2   0.147199 0.625866 0.276003 -0.564824
O17   O     O_R   0.179979 0.536813 0.186204 -0.779555
O18   O     O_2   0.366781 0.756322 0.653339 -0.565560
O19   O     O_R   0.183764 0.647017 0.699865 -0.729863
O20   O     O_2   0.795924 0.543422 0.316129 -0.553397
O21   O     O_R   0.789615 0.340263 0.279309 -0.747905
O22   O     O_2   0.526434 0.222396 0.379743 -0.643912
O23   O     O_R   0.651120 0.659650 0.489640 -0.546211
O24   O     O_R   0.672786 0.067887 0.366524 -0.718719
O25   O     O_2   0.446752 0.768512 0.383864 -0.640161
O26   O     O_R   0.280475 0.899021 0.412056 -0.757620
O27   O     O_2   0.055360 0.248113 0.510014 -0.577385
O28   O     O_R   0.188529 0.326913 0.430696 -0.762707
O29   O     O_2   0.888885 0.505897 0.613249 -0.607785
O30   O     O_R   0.809900 0.668208 0.569697 -0.738348
O31   O     O_R   0.348880 0.340350 0.510360 -0.594217
O32   O     O_R   0.389950 0.516450 0.591390 -0.591707
O33   O     O_R   0.610050 0.483550 0.408610 -0.595222
O34   O     O_R   0.610020 0.483630 0.576300 -0.619351
O35   O     O_R   0.389980 0.516370 0.423700 -0.588120
O36   O     O_2   0.364207 0.295164 0.151142 -0.499598
Zn1   Zn    Zn3+2 0.353060 0.521920 0.510080 1.069691
Zn2   Zn    Zn3+2 0.646940 0.478080 0.489920 1.080241

loop_
_geom_bond_atom_site_label_1
_geom_bond_atom_site_label_2
_ccdc_geom_bond_type
C44   H1    S    
C6    N1    S    
O33   Zn2   S    
C18   O3    S    
C27   C29   A    
C34   C37   S    
C11   C13   S    
C37   O16   D    
C15   C47   S    
H11   O13   S    
C14   C46   S    
C30   C35   S    
C17   C26   A    
C19   O4    S    
C19   C21   A    
C24   C26   A    
H10   O10   S    
O34   Zn2   S    
O32   Zn1   S    
C11   N3    D    
N3    Zn2   S    
C29   C33   S    
C3    C48   A    
C25   C30   A    
H8    O6    S    
C12   O12   A    
C18   C20   A    
C10   C40   S    
C15   O35   A    
C39   O21   S    
C7    I6    S    
C2    C39   S    
C44   C46   A    
C22   C25   A    
C11   C43   S    
C33   O10   S    
C38   C48   S    
C8    C12   S    
H3    O24   S    
C18   N1    A    
C17   N2    A    
H5    O28   S    
O35   Zn1   S    
H9    O8    S    
C3    I3    S    
C40   O24   S    
C13   C42   S    
H12   O15   S    
H13   O17   S    
C31   O5    D    
C32   N3    S    
C45   C47   A    
C36   O15   S    
C46   C48   A    
C12   O31   A    
C4    C6    A    
C35   O11   D    
C36   O14   D    
C38   O19   S    
O12   Zn2   S    
C23   C44   A    
C6    C34   A    
C2    C4    A    
C43   O29   D    
C5    N2    S    
C42   O28   S    
C32   O8    S    
C14   O32   A    
C5    C23   A    
C1    O23   A    
H14   O19   S    
C34   C45   A    
C27   I1    S    
C8    I5    S    
C28   I2    S    
C31   N4    S    
C20   C27   A    
C21   C28   A    
C20   C22   A    
C17   O2    S    
C22   C24   A    
C39   O20   D    
C31   O6    S    
C9    C10   S    
C16   C25   A    
C7    C9    D    
N4    Zn1   S    
C1    C7    S    
H6    O30   S    
C16   N1    A    
C40   O22   D    
C3    C5    A    
O23   Zn2   S    
H2    O21   S    
O1    Zn1   S    
C13   N4    D    
C2    C47   A    
C38   O18   D    
C9    C41   S    
C37   O17   S    
O31   Zn1   S    
C1    O1    A    
C15   O33   A    
C28   C30   A    
C43   O30   S    
C42   O27   D    
C32   O7    D    
C4    I4    S    
C35   O13   S    
H4    O26   S    
C41   O25   D    
C16   O36   S    
C14   O34   A    
C45   H7    S    
C26   C29   A    
C8    C10   D    
C23   C36   S    
C21   C24   A    
C41   O26   S    
C19   N2    A    
C33   O9    D    
