data_mof_unit_pretest_1026.cif
_audit_creation_date              2012-12-11T15:27:42-0500
_audit_creation_method            fapswitch 2.2
_symmetry_space_group_name_H-M    P1
_symmetry_Int_Tables_number       1
_space_group_crystal_system       triclinic
_cell_length_a                    23.023243
_cell_length_b                    7.294927
_cell_length_c                    15.111413
_cell_angle_alpha                 90.009832
_cell_angle_beta                  107.608455
_cell_angle_gamma                 89.992342
_cell_volume                      2419.08963937

loop_
_atom_site_label
_atom_site_type_symbol
_atom_type_description
_atom_site_fract_x
_atom_site_fract_y
_atom_site_fract_z
_atom_type_partial_charge
O1    O     O_R   0.711000 0.648610 0.341170 -0.548256
O2    O     O_R   0.289000 0.351390 0.658830 -0.540234
O3    O     O_R   0.789000 0.148610 0.158830 -0.548195
O4    O     O_R   0.211000 0.851390 0.841170 -0.540015
O5    O     O_R   0.829650 0.322030 0.336650 -0.539066
O6    O     O_R   0.170350 0.677970 0.663350 -0.525085
O7    O     O_R   0.670350 0.822030 0.163350 -0.539019
O8    O     O_R   0.329650 0.177970 0.836650 -0.524967
C1    C     C_R   0.854390 0.485786 0.356378 0.778845
C2    C     C_R   0.145616 0.514182 0.643599 0.774169
C3    C     C_R   0.645609 0.985790 0.143623 0.778901
C4    C     C_R   0.354384 0.014179 0.856400 0.774149
O9    O     O_R   0.713950 0.319280 0.352070 -0.525750
O10   O     O_R   0.286050 0.680720 0.647930 -0.528536
O11   O     O_R   0.786050 0.819280 0.147930 -0.525864
O12   O     O_R   0.213950 0.180720 0.852070 -0.528524
O13   O     O_R   0.672470 0.142870 0.174360 -0.531377
O14   O     O_R   0.327530 0.857130 0.825640 -0.543020
O15   O     O_R   0.827530 0.642870 0.325640 -0.531302
O16   O     O_R   0.172470 0.357130 0.674360 -0.543025
C5    C     C_R   0.701832 0.487922 0.376683 0.844944
C6    C     C_R   0.298053 0.512560 0.623223 0.848742
C7    C     C_R   0.798175 0.987883 0.123326 0.845252
C8    C     C_R   0.201958 0.012597 0.876794 0.848702
O17   O     O_3   0.736530 0.478650 0.191680 -0.389520
O18   O     O_3   0.263470 0.521350 0.808320 -0.387133
O19   O     O_3   0.763470 0.978650 0.308320 -0.389491
O20   O     O_3   0.236530 0.021350 0.691680 -0.387251
V1    V     V_3+5 0.752500 0.206170 0.260820 1.533690
V2    V     V_3+5 0.247500 0.793830 0.739180 1.553047
V3    V     V_3+5 0.747500 0.706170 0.239180 1.533611
V4    V     V_3+5 0.252500 0.293830 0.760820 1.553027
C9    C     C_R   0.825161 0.002334 0.046661 -0.143446
C10   C     C_R   0.174084 0.008004 0.952656 -0.151023
C11   C     C_R   0.674865 0.502569 0.453367 -0.143166
C12   C     C_R   0.325946 0.507776 0.547390 -0.150853
C13   C     C_R   0.823097 0.123771 0.895162 0.373854
C14   C     C_R   0.179798 0.035599 0.116264 0.372758
C15   C     C_R   0.676768 0.625726 0.604478 0.373972
C16   C     C_R   0.320183 0.533066 0.383694 0.373013
C17   C     C_R   0.792449 0.083021 0.961162 -0.201482
C18   C     C_R   0.209424 0.027529 0.046530 -0.195270
C19   C     C_R   0.707480 0.584278 0.538640 -0.201196
C20   C     C_R   0.290575 0.525786 0.453466 -0.195035
C21   C     C_R   0.886878 0.959093 0.064708 0.370125
C22   C     C_R   0.110704 0.990929 0.929096 0.370973
C23   C     C_R   0.613203 0.458811 0.435456 0.370152
C24   C     C_R   0.389350 0.491504 0.570999 0.370975
C25   C     C_R   0.920384 0.036048 0.008373 -0.108275
C26   C     C_R   0.080254 0.030792 0.995966 -0.101645
C27   C     C_R   0.579593 0.536296 0.491524 -0.108412
C28   C     C_R   0.419734 0.530573 0.503970 -0.101528
C29   C     C_R   0.887633 0.110351 0.920560 -0.042812
C30   C     C_R   0.115022 0.033828 0.091264 -0.038315
C31   C     C_R   0.612247 0.611851 0.579079 -0.042718
C32   C     C_R   0.384960 0.532025 0.408681 -0.038222
C33   C     C_R   0.985420 0.044008 0.037747 -0.063854
C34   C     C_R   0.016276 0.066428 0.970576 -0.061555
C35   C     C_R   0.514547 0.543592 0.462125 -0.063794
C36   C     C_R   0.483662 0.566857 0.529204 -0.061578
C37   C     C_R   0.983843 0.145960 0.883935 0.250639
C38   C     C_R   0.019953 0.054698 0.132645 0.258198
C39   C     C_R   0.515986 0.647772 0.615522 0.250749
C40   C     C_R   0.479997 0.552772 0.367206 0.258061
C41   C     C_R   0.920220 0.176807 0.861400 0.323516
C42   C     C_R   0.084341 0.040925 0.159589 0.307413
C43   C     C_R   0.579573 0.679078 0.637962 0.323568
C44   C     C_R   0.415629 0.538281 0.340332 0.307430
C45   C     C_1   0.416830 0.006832 0.918460 -0.119638
C46   C     C_1   0.583155 0.993082 0.081588 -0.114544
C47   C     C_1   0.083170 0.506839 0.581539 -0.119477
C48   C     C_1   0.916845 0.493074 0.418413 -0.114529
C49   C     C_1   0.469168 0.002283 0.969874 0.023096
C50   C     C_1   0.530813 0.997591 0.030183 0.025858
C51   C     C_1   0.030832 0.502285 0.530126 0.023182
C52   C     C_1   0.969186 0.497587 0.469818 0.025814
O21   O     O_3   0.889717 0.277434 0.783693 -0.595701
H1    H     H_    0.917308 0.373478 0.773145 0.304111
O22   O     O_3   0.117536 0.029384 0.252455 -0.601499
H2    H     H_    0.092019 0.971013 0.286909 0.306225
O23   O     O_3   0.609953 0.780893 0.715281 -0.595884
H3    H     H_    0.582266 0.877101 0.725393 0.303770
O24   O     O_3   0.382451 0.525191 0.247528 -0.601402
H4    H     H_    0.408055 0.466507 0.213304 0.306246
O25   O     O_3   0.080540 0.922619 0.841892 -0.632974
H5    H     H_    0.042716 0.861151 0.844588 0.300542
O26   O     O_3   0.912545 0.839473 0.136897 -0.622102
H6    H     H_    0.947081 0.775869 0.123761 0.302180
O27   O     O_3   0.419618 0.424617 0.658449 -0.633088
H7    H     H_    0.457523 0.363319 0.655972 0.300502
O28   O     O_3   0.587692 0.338212 0.363663 -0.621991
H8    H     H_    0.553246 0.274563 0.377020 0.302189
C53   C     C_2   0.277272 0.022493 0.074049 0.363539
H9    H     H_    0.302934 0.960136 0.139395 0.102582
O29   O     O_2   0.305381 0.090505 0.025605 -0.540467
C54   C     C_2   0.726612 0.128617 0.940013 0.386120
H10   H     H_    0.707412 0.243143 0.894756 0.083631
O30   O     O_2   0.692846 0.036478 0.970696 -0.541268
C55   C     C_2   0.222741 0.520015 0.426027 0.362435
H11   H     H_    0.197150 0.456270 0.361025 0.103614
O31   O     O_2   0.194569 0.588988 0.474144 -0.540499
C56   C     C_2   0.773280 0.630244 0.559690 0.385838
H12   H     H_    0.792372 0.745280 0.604624 0.083914
O32   O     O_2   0.807133 0.537866 0.529284 -0.541292
O33   O     O_3   0.791114 0.179003 0.806132 -0.595417
H13   H     H_    0.749693 0.125250 0.788392 0.304342
O34   O     O_3   0.213135 0.054036 0.208837 -0.599099
H14   H     H_    0.250055 0.127991 0.213941 0.303536
O35   O     O_3   0.708672 0.682117 0.693339 -0.595614
H15   H     H_    0.750138 0.628690 0.711255 0.303675
O36   O     O_3   0.286821 0.549993 0.291064 -0.599294
H16   H     H_    0.249720 0.623305 0.285676 0.302658
O37   O     O_3   0.015911 0.213618 0.827161 -0.626917
H17   H     H_    0.990417 0.199610 0.761678 0.309826
O38   O     O_3   0.990439 0.102335 0.196645 -0.623957
H18   H     H_    0.018875 0.170671 0.248564 0.302740
O39   O     O_3   0.483824 0.716194 0.672003 -0.626927
H19   H     H_    0.509329 0.703412 0.737537 0.309888
O40   O     O_3   0.509440 0.599679 0.303028 -0.623991
H20   H     H_    0.480912 0.667141 0.250880 0.302851

loop_
_geom_bond_atom_site_label_1
_geom_bond_atom_site_label_2
_ccdc_geom_bond_type
O17   V3    S    
C4    C45   S    
O1    C5    A    
C53   H9    S    
O19   V1    S    
C18   C53   S    
C9    C21   A    
C49   C50   S    
O3    C7    A    
O36   H16   S    
C10   C18   A    
C1    C48   S    
O26   H6    S    
O15   V3    S    
O23   H3    S    
C3    C46   S    
C25   C33   A    
C33   C38   A    
O25   H5    S    
O7    C3    A    
C42   O22   S    
C35   C40   A    
C26   C30   A    
C40   O40   S    
C36   C39   A    
C40   C44   A    
O9    V1    S    
C21   O26   S    
C14   C18   A    
C24   C28   A    
C39   O39   S    
C20   C55   S    
C25   C29   A    
C17   C54   S    
O38   H18   S    
O1    V3    S    
O13   V1    S    
O2    V4    S    
C14   O34   S    
O3    V1    S    
C28   C36   A    
C1    O15   A    
C15   C31   A    
C55   H11   S    
C2    O16   A    
C7    C9    S    
C54   O30   D    
C46   C50   T    
O34   H14   S    
C45   C49   T    
C10   C22   A    
C11   C19   A    
C16   C20   A    
O21   H1    S    
C22   O25   S    
C13   C29   A    
C2    C47   S    
C34   C37   A    
O11   C7    A    
C11   C23   A    
C35   C36   A    
O12   C8    A    
O10   V2    S    
C16   O36   S    
O5    V1    S    
C39   C43   A    
O7    V3    S    
C38   C42   A    
O8    V4    S    
C41   O21   S    
O35   H15   S    
O28   H8    S    
O18   V4    S    
C23   C27   A    
C16   C32   A    
C13   O33   S    
C32   C44   A    
C8    C10   S    
C26   C34   A    
C51   C52   S    
O5    C1    A    
C31   C43   A    
O24   H4    S    
C14   C30   A    
C21   C25   A    
O8    C4    A    
C54   H10   S    
O9    C5    A    
C48   C52   T    
C56   O32   D    
O14   V2    S    
C55   O31   D    
C43   O23   S    
C24   O27   S    
C37   O37   S    
C12   C20   A    
C27   C35   A    
C29   C41   A    
O37   H17   S    
O16   V4    S    
C3    O13   A    
O6    V2    S    
C44   O24   S    
C23   O28   S    
O6    C2    A    
C15   C19   A    
O40   H20   S    
O11   V3    S    
C5    C11   S    
O12   V4    S    
C6    C12   S    
O33   H13   S    
C22   C26   A    
O39   H19   S    
C9    C17   A    
O10   C6    A    
O20   V2    S    
C19   C56   S    
C38   O38   S    
O2    C6    A    
C47   C51   T    
C33   C34   A    
O4    C8    A    
C12   C24   A    
C27   C31   A    
C13   C17   A    
C56   H12   S    
O22   H2    S    
C37   C41   A    
C15   O35   S    
C53   O29   D    
C4    O14   A    
O27   H7    S    
C30   C42   A    
O4    V2    S    
C28   C32   A    
