data_mof_unit_pretest_105.cif
_audit_creation_date              2012-12-11T16:15:07-0500
_audit_creation_method            fapswitch 2.2
_symmetry_space_group_name_H-M    P1
_symmetry_Int_Tables_number       1
_space_group_crystal_system       monoclinic
_cell_length_a                    7.199036
_cell_length_b                    23.368332
_cell_length_c                    25.633062
_cell_angle_alpha                 90.0
_cell_angle_beta                  90.0
_cell_angle_gamma                 89.999983
_cell_volume                      4312.23626371

loop_
_atom_site_label
_atom_site_type_symbol
_atom_type_description
_atom_site_fract_x
_atom_site_fract_y
_atom_site_fract_z
_atom_type_partial_charge
O1    O     O_R   0.694650 0.802620 0.195790 -0.538644
O2    O     O_R   0.305350 0.197380 0.804210 -0.538644
O3    O     O_R   0.305350 0.197380 0.695790 -0.538644
O4    O     O_R   0.694650 0.802620 0.304210 -0.538644
O5    O     O_R   0.194650 0.697380 0.304210 -0.538644
O6    O     O_R   0.805350 0.302620 0.695790 -0.538645
O7    O     O_R   0.805350 0.302620 0.804210 -0.538644
O8    O     O_R   0.194650 0.697380 0.195790 -0.538644
O9    O     O_R   0.364900 0.809540 0.303840 -0.544544
O10   O     O_R   0.635100 0.190460 0.696160 -0.544543
O11   O     O_R   0.635100 0.190460 0.803840 -0.544543
O12   O     O_R   0.364900 0.809540 0.196160 -0.544543
O13   O     O_R   0.864900 0.690460 0.196160 -0.544543
O14   O     O_R   0.135100 0.309540 0.803840 -0.544543
O15   O     O_R   0.135100 0.309540 0.696160 -0.544543
O16   O     O_R   0.864900 0.690460 0.303840 -0.544543
H1    H     H_    0.327196 0.569256 0.449984 0.115259
H2    H     H_    0.672804 0.430744 0.550016 0.115259
H3    H     H_    0.672804 0.430744 0.949984 0.115259
H4    H     H_    0.327196 0.569256 0.050016 0.115259
H5    H     H_    0.827196 0.930744 0.050016 0.115259
H6    H     H_    0.172804 0.069256 0.949984 0.115259
H7    H     H_    0.172804 0.069256 0.550016 0.115259
H8    H     H_    0.827196 0.930744 0.449984 0.115259
C1    C     C_R   0.533162 0.823952 0.320492 0.692432
C2    C     C_R   0.466838 0.176048 0.679508 0.692432
C3    C     C_R   0.466838 0.176048 0.820492 0.692432
C4    C     C_R   0.533162 0.823952 0.179507 0.692432
C5    C     C_R   0.033162 0.676048 0.179507 0.692432
C6    C     C_R   0.966838 0.323952 0.820492 0.692431
C7    C     C_R   0.966838 0.323952 0.679508 0.692432
C8    C     C_R   0.033162 0.676048 0.320492 0.692432
H9    H     H_    0.841701 0.533978 0.525570 0.125403
H10   H     H_    0.158299 0.466021 0.474430 0.125403
H11   H     H_    0.158298 0.466022 0.025570 0.125403
H12   H     H_    0.841700 0.533979 0.974430 0.125403
H13   H     H_    0.341702 0.966021 0.974430 0.125403
H14   H     H_    0.658298 0.033979 0.025570 0.125403
H15   H     H_    0.658298 0.033979 0.474430 0.125403
H16   H     H_    0.341702 0.966021 0.525570 0.125402
H17   H     H_    0.674839 0.355928 0.616780 0.131018
H18   H     H_    0.325161 0.644072 0.383220 0.131018
H19   H     H_    0.325161 0.644072 0.116780 0.131019
H20   H     H_    0.674839 0.355928 0.883220 0.131018
H21   H     H_    0.174839 0.144072 0.883220 0.131018
H22   H     H_    0.825161 0.855928 0.116780 0.131018
H23   H     H_    0.825161 0.855928 0.383220 0.131018
H24   H     H_    0.174839 0.144072 0.616780 0.131018
O17   O     O_3   0.528130 0.713200 0.250000 -0.377324
O18   O     O_3   0.471870 0.286800 0.750000 -0.377324
O19   O     O_3   0.028130 0.786800 0.250000 -0.377324
O20   O     O_3   0.971870 0.213200 0.750000 -0.377324
V1    V     V_3+5 0.253280 0.756820 0.250000 1.394352
V2    V     V_3+5 0.746720 0.243180 0.750000 1.394352
V3    V     V_3+5 0.753280 0.743180 0.250000 1.394352
V4    V     V_3+5 0.246720 0.256820 0.750000 1.394352
C9    C     C_R   0.038330 0.630408 0.360840 -0.067676
C10   C     C_R   0.961670 0.369592 0.639160 -0.067676
C11   C     C_R   0.961670 0.369592 0.860840 -0.067676
C12   C     C_R   0.038330 0.630408 0.139160 -0.067676
C13   C     C_R   0.538330 0.869592 0.139160 -0.067676
C14   C     C_R   0.461670 0.130408 0.860840 -0.067676
C15   C     C_R   0.461670 0.130408 0.639160 -0.067676
C16   C     C_R   0.538330 0.869592 0.360840 -0.067676
C17   C     C_R   0.879321 0.596841 0.370246 -0.212115
C18   C     C_R   0.120679 0.403158 0.629754 -0.212117
C19   C     C_R   0.120679 0.403159 0.870246 -0.212115
C20   C     C_R   0.879321 0.596842 0.129754 -0.212117
C21   C     C_R   0.379321 0.903158 0.129754 -0.212115
C22   C     C_R   0.620679 0.096841 0.870246 -0.212115
C23   C     C_R   0.620679 0.096842 0.629754 -0.212115
C24   C     C_R   0.379321 0.903158 0.370246 -0.212115
C25   C     C_R   0.879467 0.552972 0.407753 0.173836
C26   C     C_R   0.120534 0.447028 0.592247 0.173834
C27   C     C_R   0.120533 0.447028 0.907753 0.173836
C28   C     C_R   0.879466 0.552972 0.092246 0.173834
C29   C     C_R   0.379466 0.947027 0.092247 0.173835
C30   C     C_R   0.620534 0.052972 0.907753 0.173836
C31   C     C_R   0.620534 0.052972 0.592247 0.173836
C32   C     C_R   0.379466 0.947028 0.407753 0.173835
C33   C     C_R   0.042245 0.543636 0.437690 0.145813
C34   C     C_R   0.957755 0.456363 0.562310 0.145815
C35   C     C_R   0.957755 0.456363 0.937690 0.145812
C36   C     C_R   0.042244 0.543637 0.062310 0.145816
C37   C     C_R   0.542244 0.956363 0.062310 0.145813
C38   C     C_R   0.457755 0.043637 0.937690 0.145813
C39   C     C_R   0.457755 0.043637 0.562310 0.145813
C40   C     C_R   0.542245 0.956363 0.437690 0.145813
C41   C     C_R   0.201542 0.576434 0.427663 -0.187014
C42   C     C_R   0.798458 0.423566 0.572336 -0.187013
C43   C     C_R   0.798458 0.423566 0.927663 -0.187014
C44   C     C_R   0.201541 0.576434 0.072336 -0.187014
C45   C     C_R   0.701541 0.923566 0.072336 -0.187012
C46   C     C_R   0.298458 0.076434 0.927663 -0.187012
C47   C     C_R   0.298459 0.076434 0.572336 -0.187012
C48   C     C_R   0.701541 0.923566 0.427663 -0.187012
C49   C     C_R   0.200109 0.619289 0.389632 -0.180105
C50   C     C_R   0.799891 0.380711 0.610368 -0.180105
C51   C     C_R   0.799891 0.380711 0.889632 -0.180105
C52   C     C_R   0.200109 0.619289 0.110368 -0.180105
C53   C     C_R   0.700109 0.880710 0.110368 -0.180105
C54   C     C_R   0.299891 0.119289 0.889632 -0.180105
C55   C     C_R   0.299891 0.119290 0.610368 -0.180105
C56   C     C_R   0.700109 0.880710 0.389632 -0.180105
C57   C     C_2   0.053786 0.499220 0.478640 -0.197397
C58   C     C_2   0.946215 0.500779 0.521360 -0.197396
C59   C     C_2   0.946214 0.500780 0.978640 -0.197397
C60   C     C_2   0.053785 0.499221 0.021360 -0.197396
C61   C     C_2   0.553785 0.000779 0.021360 -0.197398
C62   C     C_2   0.446215 0.999220 0.978640 -0.197396
C63   C     C_2   0.446215 0.999221 0.521360 -0.197397
C64   C     C_2   0.553785 0.000779 0.478640 -0.197397
H25   H     H_    0.754928 0.603866 0.347340 0.130412
H26   H     H_    0.245072 0.396133 0.652660 0.130412
H27   H     H_    0.245072 0.396133 0.847340 0.130412
H28   H     H_    0.754928 0.603867 0.152660 0.130412
H29   H     H_    0.254927 0.896133 0.152660 0.130412
H30   H     H_    0.745072 0.103867 0.847340 0.130412
H31   H     H_    0.745072 0.103867 0.652660 0.130412
H32   H     H_    0.254927 0.896133 0.347340 0.130412
C65   C     C_3   0.292617 0.484117 0.587071 -0.375023
C66   C     C_3   0.260348 0.544111 0.608844 -0.734374
H33   H     H_    0.153245 0.567229 0.585969 0.231387
H34   H     H_    0.215587 0.541597 0.650258 0.225273
H35   H     H_    0.391719 0.568916 0.606814 0.211795
H36   H     H_    0.410514 0.464984 0.608984 0.174698
H37   H     H_    0.338920 0.486756 0.545942 0.171053
C67   C     C_3   0.707384 0.515883 0.412928 -0.375025
C68   C     C_3   0.739654 0.455889 0.391154 -0.734380
H38   H     H_    0.784398 0.458405 0.349738 0.225273
H39   H     H_    0.846769 0.432772 0.414025 0.231389
H40   H     H_    0.608288 0.431083 0.393187 0.211796
H41   H     H_    0.661084 0.513242 0.454058 0.171055
H42   H     H_    0.589485 0.535016 0.391017 0.174698
C69   C     C_3   0.707382 0.515883 0.087071 -0.375023
C70   C     C_3   0.739652 0.455889 0.108843 -0.734381
H43   H     H_    0.846753 0.432771 0.085967 0.231389
H44   H     H_    0.784415 0.458402 0.150257 0.225274
H45   H     H_    0.608281 0.431084 0.106814 0.211795
H46   H     H_    0.589486 0.535016 0.108984 0.174699
H47   H     H_    0.661079 0.513244 0.045942 0.171053
C71   C     C_3   0.292616 0.484117 0.912928 -0.375024
C72   C     C_3   0.260346 0.544111 0.891154 -0.734380
H48   H     H_    0.215604 0.541595 0.849738 0.225273
H49   H     H_    0.153229 0.567228 0.914024 0.231389
H50   H     H_    0.391712 0.568917 0.893187 0.211796
H51   H     H_    0.338916 0.486759 0.954058 0.171055
H52   H     H_    0.410514 0.464984 0.891016 0.174698
C73   C     C_3   0.792616 0.015883 0.912928 -0.375026
C74   C     C_3   0.760347 0.955890 0.891154 -0.734383
H53   H     H_    0.653233 0.932772 0.914024 0.231390
H54   H     H_    0.715604 0.958405 0.849738 0.225274
H55   H     H_    0.891714 0.931083 0.893186 0.211796
H56   H     H_    0.910515 0.035016 0.891017 0.174699
H57   H     H_    0.838916 0.013241 0.954058 0.171056
C75   C     C_3   0.207383 0.984117 0.087072 -0.375024
C76   C     C_3   0.239652 0.044110 0.108846 -0.734379
H58   H     H_    0.284394 0.041595 0.150262 0.225273
H59   H     H_    0.346768 0.067227 0.085975 0.231389
H60   H     H_    0.108286 0.068917 0.106812 0.211796
H61   H     H_    0.161083 0.986758 0.045942 0.171055
H62   H     H_    0.089485 0.964983 0.108983 0.174698
C77   C     C_3   0.207383 0.984117 0.412928 -0.375025
C78   C     C_3   0.239653 0.044110 0.391153 -0.734380
H63   H     H_    0.346769 0.067227 0.414023 0.231389
H64   H     H_    0.284394 0.041594 0.349737 0.225273
H65   H     H_    0.108286 0.068917 0.393187 0.211796
H66   H     H_    0.089484 0.964984 0.391017 0.174698
H67   H     H_    0.161084 0.986759 0.454058 0.171055
C79   C     C_3   0.792617 0.015883 0.587072 -0.375024
C80   C     C_3   0.760348 0.955890 0.608846 -0.734380
H68   H     H_    0.715607 0.958405 0.650262 0.225273
H69   H     H_    0.653231 0.932773 0.585976 0.231389
H70   H     H_    0.891714 0.931083 0.606812 0.211796
H71   H     H_    0.838916 0.013242 0.545942 0.171055
H72   H     H_    0.910516 0.035016 0.608983 0.174698

loop_
_geom_bond_atom_site_label_1
_geom_bond_atom_site_label_2
_ccdc_geom_bond_type
C72   H50   S    
O14   V4    S    
C80   H68   S    
C40   C48   A    
C76   H58   S    
C14   C54   A    
C22   C30   A    
C11   C51   A    
C21   C29   A    
C77   C78   S    
C10   C50   A    
C2    C15   S    
C27   C35   A    
C67   C68   S    
C28   C36   A    
C23   C31   A    
O4    C1    A    
O9    C1    A    
C69   C70   S    
C79   H72   S    
H4    C44   S    
C44   C52   A    
O12   C4    A    
O8    C5    A    
C7    C10   S    
O13   C5    A    
C78   H63   S    
C38   C62   S    
O6    V2    S    
C65   H37   S    
C37   C61   S    
H8    C48   S    
C29   C75   S    
H20   C51   S    
C39   C63   S    
C79   C80   S    
C72   H48   S    
C18   C26   A    
C17   C25   A    
C14   C22   A    
C72   H49   S    
C25   C33   A    
C19   H27   S    
H11   C60   S    
C38   C46   A    
C11   C19   A    
C37   C45   A    
C10   C18   A    
C63   C64   D    
C47   C55   A    
C74   H55   S    
C39   C47   A    
O1    C4    A    
C59   C60   D    
O2    C3    A    
O12   V1    S    
C68   H40   S    
C33   C41   A    
C4    C13   S    
C30   C38   A    
C16   C24   A    
O6    C7    A    
C29   C37   A    
C76   H59   S    
O7    C6    A    
H12   C59   S    
H6    C46   S    
C67   H41   S    
C8    C9    S    
C26   C34   A    
C70   H45   S    
O10   V2    S    
C31   C39   A    
C80   H70   S    
C28   C69   S    
O20   V2    S    
H16   C63   S    
C79   H71   S    
C78   H65   S    
C69   H46   S    
H22   C53   S    
C33   C57   S    
H7    C47   S    
H2    C42   S    
C71   H52   S    
H1    C41   S    
H19   C52   S    
C70   H44   S    
H18   C49   S    
C45   C53   A    
O17   V3    S    
H24   C55   S    
O18   V4    S    
C41   C49   A    
O19   V1    S    
C1    C16   S    
C13   C53   A    
C73   H56   S    
C32   C77   S    
C3    C14   S    
C67   H42   S    
C80   H69   S    
O3    V4    S    
C5    C12   S    
O11   C3    A    
C9    C49   A    
C6    C11   S    
C24   H32   S    
C65   C66   S    
C20   C28   A    
H14   C61   S    
C12   C20   A    
H13   C62   S    
C73   H57   S    
O11   V2    S    
C20   H28   S    
C15   C55   A    
H15   C64   S    
C15   C23   A    
C75   H61   S    
C76   H60   S    
C48   C56   A    
O4    V3    S    
C74   H54   S    
C19   C27   A    
C66   H34   S    
C31   C79   S    
C68   H38   S    
C13   C21   A    
C16   C56   A    
C75   C76   S    
H23   C56   S    
C18   H26   S    
C71   C72   S    
H10   C57   S    
C17   H25   S    
C71   H51   S    
O3    C2    A    
H9    C58   S    
C9    C17   A    
C70   H43   S    
C12   C52   A    
O8    V1    S    
O15   C7    A    
O16   C8    A    
C25   C67   S    
C35   C43   A    
C57   C58   D    
C34   C42   A    
C23   H31   S    
C43   C51   A    
O15   V4    S    
O5    C8    A    
C66   H35   S    
C78   H64   S    
C77   H66   S    
O5    V1    S    
O16   V3    S    
O14   C6    A    
C65   H36   S    
C32   C40   A    
O2    V4    S    
C73   C74   S    
C27   C71   S    
O10   C2    A    
H5    C45   S    
C22   H30   S    
C21   H29   S    
C36   C60   S    
C35   C59   S    
C34   C58   S    
O1    V3    S    
C77   H67   S    
H3    C43   S    
H21   C54   S    
C75   H62   S    
C40   C64   S    
C69   H47   S    
C26   C65   S    
O9    V1    S    
C46   C54   A    
C24   C32   A    
H17   C50   S    
C36   C44   A    
O7    V2    S    
C68   H39   S    
C66   H33   S    
C61   C62   D    
C42   C50   A    
C30   C73   S    
C74   H53   S    
O13   V3    S    
