data_mof_unit_pretest_1091.cif
_audit_creation_date              2012-12-11T14:58:43-0500
_audit_creation_method            fapswitch 2.2
_symmetry_space_group_name_H-M    P1
_symmetry_Int_Tables_number       1
_space_group_crystal_system       triclinic
_cell_length_a                    10.932046
_cell_length_b                    10.955161
_cell_length_c                    18.804105
_cell_angle_alpha                 90.347365
_cell_angle_beta                  90.405134
_cell_angle_gamma                 59.612462
_cell_volume                      1942.59208269

loop_
_atom_site_label
_atom_site_type_symbol
_atom_type_description
_atom_site_fract_x
_atom_site_fract_y
_atom_site_fract_z
_atom_type_partial_charge
C1    C     C_R   0.359346 0.772456 0.397596 0.552226
C2    C     C_R   0.254647 0.449177 0.196413 -0.155503
C3    C     C_R   0.262232 0.466185 0.269513 -0.028997
C4    C     C_R   0.414926 0.378035 0.382412 0.552181
C5    C     C_R   0.876245 0.807026 0.357245 -0.115574
C6    C     C_R   0.930502 0.669781 0.382918 -0.111967
C7    C     C_R   0.056329 0.558621 0.355118 -0.045624
C8    C     C_R   0.131864 0.584002 0.302747 0.057401
C9    C     C_R   0.389394 0.369158 0.306316 0.005231
C10   C     C_R   0.707325 0.409797 0.279880 -0.138618
C11   C     C_R   0.736408 0.397089 0.207842 -0.155167
C12   C     C_R   0.620715 0.127771 0.160405 0.053435
C13   C     C_R   0.876834 0.331433 0.186146 0.025479
C14   C     C_R   0.988294 0.280697 0.235783 -0.132407
C15   C     C_R   0.959782 0.288912 0.308178 -0.047322
C16   C     C_R   0.778251 0.378148 0.403391 0.543683
C17   C     C_R   0.818411 0.354112 0.329824 0.026492
C18   C     C_R   0.471595 0.792508 0.287802 -0.140300
C19   C     C_R   0.459783 0.818791 0.214948 -0.152717
C20   C     C_R   0.325254 0.886746 0.183977 0.030673
C21   C     C_R   0.203627 0.940074 0.226798 -0.149271
C22   C     C_R   0.215365 0.915094 0.298600 -0.125671
C23   C     C_R   0.365587 0.336982 0.159623 -0.002341
C24   C     C_R   0.348510 0.834877 0.328725 0.048893
C25   C     C_R   0.385027 0.197814 0.693262 -0.137323
C26   C     C_R   0.374515 0.184512 0.765303 -0.111776
C27   C     C_R   0.297084 0.305402 0.808106 0.034550
C28   C     C_R   0.344785 0.768938 0.604766 0.554791
C29   C     C_R   0.219509 0.438934 0.777323 -0.159236
C30   C     C_R   0.230181 0.452476 0.704652 -0.139453
C31   C     C_R   0.319112 0.332223 0.663289 0.026517
C32   C     C_R   0.894961 0.389634 0.711734 -0.142235
C33   C     C_R   0.913799 0.381119 0.784115 -0.137658
C34   C     C_R   0.504824 0.265319 0.267851 -0.152816
C35   C     C_R   0.862799 0.310533 0.826249 0.022321
C36   C     C_R   0.801108 0.238596 0.793840 -0.036200
C37   C     C_R   0.781556 0.248383 0.720375 -0.139124
C38   C     C_R   0.823382 0.328958 0.679999 0.017147
C39   C     C_R   0.193389 0.855214 0.710539 -0.137207
C40   C     C_R   0.368132 0.350460 0.595212 0.562255
C41   C     C_R   0.182214 0.867461 0.783613 -0.133538
C42   C     C_R   0.298872 0.846216 0.824725 0.030889
C43   C     C_R   0.427333 0.810932 0.792057 -0.144000
C44   C     C_R   0.438772 0.798054 0.718862 -0.140559
C45   C     C_R   0.495726 0.247784 0.195250 -0.024233
C46   C     C_R   0.322302 0.818316 0.677771 0.029938
C47   C     C_R   0.911887 0.315779 0.112068 0.536986
C48   C     C_R   0.330377 0.295456 0.091636 0.541944
C49   C     C_R   0.301853 0.909749 0.108159 0.547116
C50   C     C_R   0.891733 0.305305 0.901978 0.550023
C51   C     C_R   0.292264 0.284319 0.883546 0.551609
C52   C     C_R   0.765992 0.374303 0.609421 0.555787
C53   C     C_R   0.275365 0.894116 0.897806 0.546316
C54   C     C_R   0.845342 0.897407 0.090014 -0.110579
C55   C     C_R   0.794573 0.034979 0.065444 -0.068649
C56   C     C_R   0.073115 0.721729 0.275594 -0.098258
C57   C     C_R   0.683643 0.150140 0.100791 -0.056296
C58   C     C_1   0.075005 0.229281 0.358988 0.154672
C59   C     C_1   0.750180 0.162023 0.834538 0.189382
C60   C     C_R   0.947400 0.832894 0.303462 -0.118332
C61   C     C_R   0.672532 0.988917 0.184768 -0.093953
C62   C     C_R   0.784128 0.874369 0.149538 -0.125365
Cr1   Cr    Cr6+3 0.601770 0.606860 0.505860 1.003706
Cr2   Cr    Cr6+3 0.291380 0.601660 0.495070 1.024587
Cr3   Cr    Cr6+3 0.606880 0.291510 0.499120 1.015314
Cr4   Cr    Cr6+3 0.062440 0.063090 0.008210 0.995468
Cr5   Cr    Cr6+3 0.062880 0.375170 0.998920 1.006821
Cr6   Cr    Cr6+3 0.374700 0.061720 0.992470 1.042478
H1    H     H_    0.604449 0.195974 0.294726 0.133988
H2    H     H_    0.097691 0.997053 0.204387 0.146278
H3    H     H_    0.120306 0.950873 0.329851 0.140370
H4    H     H_    0.452099 0.104138 0.661952 0.129488
H5    H     H_    0.430012 0.079080 0.787705 0.148284
H6    H     H_    0.155767 0.532149 0.809528 0.121465
H7    H     H_    0.929273 0.450413 0.681139 0.134730
H8    H     H_    0.725192 0.201355 0.695585 0.142191
H9    H     H_    0.102430 0.870217 0.679964 0.131831
H10   H     H_    0.904526 0.938953 0.282841 0.113538
H11   H     H_    0.080464 0.899102 0.807481 0.143496
H12   H     H_    0.778659 0.893044 0.378601 0.118983
H13   H     H_    0.517569 0.796971 0.822948 0.130811
H14   H     H_    0.540246 0.767147 0.694895 0.139104
H15   H     H_    0.931514 0.808625 0.062672 0.110675
H16   H     H_    0.840572 0.052172 0.018618 0.159093
H17   H     H_    0.644544 0.256115 0.080808 0.098582
H18   H     H_    0.625069 0.969293 0.230392 0.116729
H19   H     H_    0.155566 0.518185 0.169084 0.136950
H20   H     H_    0.822904 0.767686 0.168332 0.123662
H21   H     H_    0.177780 0.557817 0.682094 0.139379
H22   H     H_    0.967513 0.432148 0.807192 0.150770
H23   H     H_    0.875275 0.649628 0.424528 0.135084
H24   H     H_    0.124475 0.742343 0.232228 0.117793
H25   H     H_    0.096741 0.453556 0.375673 0.147744
H26   H     H_    0.597789 0.464515 0.297012 0.109415
H27   H     H_    0.650377 0.439107 0.169462 0.107103
H28   H     H_    0.097049 0.233416 0.217750 0.125327
H29   H     H_    0.576498 0.730329 0.310870 0.141931
H30   H     H_    0.554134 0.780068 0.182777 0.122722
N1    N     N_1   0.167274 0.181361 0.399795 -0.300544
N2    N     N_1   0.709381 0.100585 0.867094 -0.306332
O1    O     O_R   0.748800 0.497470 0.428000 -0.531885
O2    O     O_R   0.417600 0.174890 0.067840 -0.498685
O3    O     O_R   0.375320 0.946260 0.070860 -0.494408
O4    O     O_R   0.476420 0.724060 0.429470 -0.510598
O5    O     O_R   0.160600 0.919630 0.926660 -0.525125
O6    O     O_R   0.933060 0.190520 0.936020 -0.507063
O7    O     O_R   0.908880 0.403460 0.925020 -0.528133
O8    O     O_R   0.179600 0.361450 0.918490 -0.516276
O9    O     O_R   0.391510 0.170860 0.907530 -0.502007
O10   O     O_R   0.351130 0.942530 0.922260 -0.508270
O11   O     O_3   0.166667 0.166667 0.999870 -0.255703
O12   O     O_R   0.300070 0.471040 0.567100 -0.504113
O13   O     O_R   0.264580 0.744340 0.416750 -0.513719
O14   O     O_R   0.309380 0.472470 0.418200 -0.497895
O15   O     O_R   0.501710 0.260430 0.414300 -0.511831
O16   O     O_R   0.728090 0.305600 0.428960 -0.517232
O17   O     O_R   0.738760 0.495930 0.588610 -0.522285
O18   O     O_R   0.467110 0.722640 0.578360 -0.503200
O19   O     O_R   0.254530 0.742800 0.577360 -0.524570
O20   O     O_R   0.491670 0.258900 0.574910 -0.517157
O21   O     O_R   0.718780 0.304180 0.577850 -0.505726
O22   O     O_3   0.500010 0.500010 0.500020 -0.266748
O23   O     O_R   0.186690 0.923650 0.086970 -0.533290
O24   O     O_R   0.957250 0.194250 0.084630 -0.519190
O25   O     O_R   0.934970 0.407490 0.085330 -0.513599
O26   O     O_R   0.203780 0.365190 0.067090 -0.509970

loop_
_geom_bond_atom_site_label_1
_geom_bond_atom_site_label_2
_ccdc_geom_bond_type
C53   O10   A    
C25   C31   A    
C23   C45   A    
C27   C29   A    
C41   C42   A    
C4    O15   A    
C19   C20   A    
Cr6   O3    S    
Cr1   O1    S    
C36   C59   S    
C8    C56   A    
C32   H7    S    
C7    C8    A    
C40   O12   A    
C60   H10   S    
C26   C27   A    
C29   C30   A    
Cr2   O19   S    
C18   C24   A    
C39   H9    S    
C4    O14   A    
C36   C37   A    
C37   C38   A    
Cr6   O2    S    
C44   H14   S    
Cr5   O25   S    
C42   C53   S    
C30   C31   A    
Cr1   O17   S    
Cr5   O8    S    
Cr2   O12   S    
C38   C52   S    
C10   H26   S    
C10   C17   A    
C6    H23   S    
C49   O23   A    
C26   H5    S    
C31   C40   S    
C18   C19   A    
C33   C35   A    
C35   C36   A    
C27   C51   S    
C16   C17   S    
C23   C48   S    
C18   H29   S    
Cr3   O21   S    
Cr4   O11   S    
C52   O17   A    
C51   O9    A    
C13   C14   A    
C59   N2    T    
Cr3   O15   S    
C1    O13   A    
Cr4   O6    S    
C30   H21   S    
C16   O16   A    
C14   H28   S    
C54   H15   S    
C19   H30   S    
C44   C46   A    
C47   O25   A    
C7    H25   S    
Cr2   O14   S    
C39   C41   A    
C3    C8    S    
C61   H18   S    
Cr5   O26   S    
C13   C47   S    
Cr1   O18   S    
C51   O8    A    
C29   H6    S    
C54   C62   A    
C25   C26   A    
C62   H20   S    
C56   C60   A    
Cr6   O11   S    
C43   C44   A    
C49   O3    A    
C20   C49   S    
C3    C9    A    
C52   O21   A    
C34   H1    S    
C48   O2    A    
C35   C50   S    
C2    H19   S    
C25   H4    S    
Cr6   O10   S    
Cr3   O22   S    
C5    H12   S    
C1    O4    A    
C34   C45   A    
C39   C46   A    
C12   C57   A    
Cr5   O11   S    
C40   O20   A    
C37   H8    S    
C32   C38   A    
C55   C57   A    
C50   O7    A    
C43   H13   S    
C15   C58   S    
Cr4   O24   S    
C42   C43   A    
Cr4   O5    S    
C22   H3    S    
Cr1   O22   S    
C11   H27   S    
C15   C17   A    
C54   C55   A    
Cr2   O13   S    
C5    C60   A    
C14   C15   A    
C58   N1    T    
Cr1   O4    S    
C28   O19   A    
C41   H11   S    
C6    C7    A    
C12   C45   S    
C21   H2    S    
C28   C46   S    
C32   C33   A    
C2    C3    A    
C4    C9    S    
C28   O18   A    
C33   H22   S    
C12   C61   A    
C11   C13   A    
Cr5   O7    S    
C47   O24   A    
C5    C6    A    
Cr2   O22   S    
Cr3   O16   S    
Cr3   O20   S    
C57   H17   S    
C9    C34   A    
C22   C24   A    
Cr6   O9    S    
C61   C62   A    
C10   C11   A    
C48   O26   A    
C53   O5    A    
C16   O1    A    
C56   H24   S    
C20   C21   A    
C1    C24   S    
C2    C23   A    
C50   O6    A    
Cr4   O23   S    
C55   H16   S    
C21   C22   A    
