data_mof_unit_pretest_714.cif
_audit_creation_date              2013-03-05T16:09:50-0500
_audit_creation_method            fapswitch 2.2
_symmetry_space_group_name_H-M    P1
_symmetry_Int_Tables_number       1
_space_group_crystal_system       triclinic
_cell_length_a                    8.168851
_cell_length_b                    15.12867
_cell_length_c                    26.954845
_cell_angle_alpha                 98.973671
_cell_angle_beta                  92.533019
_cell_angle_gamma                 80.958834
_cell_volume                      3248.86758066

loop_
_atom_site_label
_atom_site_type_symbol
_atom_site_description
_atom_site_fract_x
_atom_site_fract_y
_atom_site_fract_z
_atom_type_partial_charge
P1    P     P_3+3 0.071950 0.575820 0.612140 0.486589
O1    O     O_2   0.906480 0.548660 0.619050 -0.363882
O2    O     O_3   0.138490 0.548590 0.558870 -0.406181
O3    O     O_3   0.686300 0.382310 0.585700 -0.395711
O4    O     O_2   0.855643 0.424814 0.668899 -0.356964
O5    O     O_3   0.035606 0.693885 0.628050 -0.551960
O6    O     O_3   0.677291 0.298722 0.673062 -0.501226
H1    H     H_    0.798928 0.226855 0.609537 0.172767
C1    C     C_3   0.698250 0.138130 0.650499 -0.955932
H2    H     H_    0.703466 0.082871 0.617932 0.226938
H3    H     H_    0.811958 0.126205 0.674181 0.278992
P2    P     P_3+3 0.664370 0.290050 0.457240 0.458984
P3    P     P_3+3 0.144149 0.219698 0.560458 0.423063
O7    O     O_2   0.844040 0.276390 0.471470 -0.381438
O8    O     O_3   0.101510 0.335500 0.560330 -0.384120
O9    O     O_2   0.008673 0.176602 0.527798 -0.388906
O10   O     O_3   0.663447 0.260660 0.391887 -0.573562
O11   O     O_3   0.113232 0.198065 0.620939 -0.539997
C2    C     C_3   0.194749 0.256285 0.655691 0.382224
H4    H     H_    0.152729 0.328328 0.651722 0.134023
H5    H     H_    0.330827 0.239874 0.650987 0.056418
C3    C     C_3   0.154167 0.243887 0.708386 -0.851206
H6    H     H_    0.017888 0.258119 0.713587 0.288548
H7    H     H_    0.200827 0.173413 0.714685 0.245197
C4    C     C_3   0.217219 0.266042 0.413137 0.437630
H8    H     H_    0.338128 0.287277 0.424406 0.094106
H9    H     H_    0.131505 0.284879 0.445136 0.133209
C5    C     C_3   0.240454 0.163639 0.398277 -0.986811
H10   H     H_    0.332223 0.142418 0.367867 0.273283
H11   H     H_    0.285596 0.129609 0.430879 0.223385
H12   H     H_    0.120409 0.141863 0.384863 0.258721
Ba1   Ba    Ba6+2 0.860050 0.456430 0.522530 1.551105
C6    C     C_3   0.977619 0.733786 0.585993 0.435066
H13   H     H_    0.858079 0.712414 0.573329 0.092701
H14   H     H_    0.066500 0.714586 0.554905 0.135541
C7    C     C_3   0.954436 0.836223 0.600771 -0.975165
H15   H     H_    0.858132 0.857871 0.629840 0.276053
H16   H     H_    0.915502 0.870249 0.567729 0.222319
H17   H     H_    0.073118 0.857635 0.615929 0.258379
C8    C     C_3   0.714332 0.328394 0.369401 0.420750
H18   H     H_    0.824140 0.352580 0.389102 0.109365
H19   H     H_    0.610746 0.385392 0.369564 0.100349
C9    C     C_3   0.760098 0.288459 0.315488 -0.950350
H20   H     H_    0.857135 0.228059 0.315209 0.276843
H21   H     H_    0.809301 0.338175 0.296489 0.226053
H22   H     H_    0.649082 0.268114 0.294188 0.261389
P4    P     P_3+3 0.117760 0.424110 0.387850 0.477738
O12   O     O_2   0.283210 0.451310 0.380920 -0.364053
O13   O     O_3   0.051220 0.451340 0.441120 -0.406554
O14   O     O_3   0.503410 0.617620 0.414290 -0.383083
O15   O     O_3   0.153721 0.306103 0.371600 -0.554365
P5    P     P_3+3 0.051136 0.781339 0.438578 0.425574
O16   O     O_3   0.617150 0.609960 0.527100 -0.380093
O17   O     O_3   0.088210 0.664420 0.439670 -0.386606
O18   O     O_2   0.188278 0.822978 0.471177 -0.388427
O19   O     O_3   0.086090 0.801632 0.378111 -0.535420
Ba2   Ba    Ba6+2 0.329780 0.543490 0.477460 1.543072
P6    P     P_3+3 0.682650 0.401672 0.651310 0.525601
C10   C     C_3   0.687284 0.228769 0.631895 0.456785
H23   H     H_    0.574953 0.238210 0.607663 0.029393
H24   H     H_    0.587924 0.137268 0.672950 0.261614
O20   O     O_3   0.572560 0.389960 0.472890 -0.388522
C11   C     C_3   0.480886 0.688165 0.632130 0.400644
H25   H     H_    0.364132 0.668606 0.614388 0.111835
H26   H     H_    0.579049 0.628001 0.629447 0.104429
C12   C     C_3   0.447829 0.725131 0.687167 -0.909522
H27   H     H_    0.357961 0.788885 0.690259 0.268929
H28   H     H_    0.394321 0.675771 0.705431 0.222152
H29   H     H_    0.565207 0.738934 0.707076 0.267924
P7    P     P_3+3 0.532385 0.723882 0.544306 0.426618
O21   O     O_2   0.345660 0.723580 0.528500 -0.376968
O22   O     O_3   0.534316 0.755541 0.609533 -0.575834
H30   H     H_    0.213241 0.291458 0.736310 0.249611
C13   C     C_3   0.006426 0.742771 0.343218 0.405022
H31   H     H_    0.050471 0.670970 0.347276 0.135295
H32   H     H_    0.870167 0.758072 0.347675 0.050297
C14   C     C_3   0.046674 0.755665 0.290581 -0.878573
H33   H     H_    0.183020 0.743339 0.285605 0.284879
H34   H     H_    0.990365 0.706986 0.262589 0.250511
H35   H     H_    0.996915 0.825701 0.284133 0.248809
P8    P     P_3+3 0.508827 0.601289 0.348699 0.469897
C15   C     C_3   0.511620 0.773244 0.369961 0.481531
H36   H     H_    0.630658 0.758500 0.390521 0.021437
O23   O     O_2   0.342211 0.571301 0.329305 -0.399628
O24   O     O_3   0.501564 0.706238 0.328063 -0.516183
H37   H     H_    0.407021 0.777353 0.395543 0.170336
H38   H     H_    0.607713 0.863857 0.327567 0.262611
C16   C     C_3   0.502919 0.864849 0.352634 -0.972118
H39   H     H_    0.510134 0.918148 0.385691 0.226515
H40   H     H_    0.384025 0.881287 0.331996 0.280737
C17   C     C_R   0.036430 0.430078 0.177454 0.530330
O25   O     O_2   0.089708 0.364800 0.198210 -0.591763
N1    N     N_R   0.933553 0.502919 0.203234 -0.162315
C18   C     C_R   0.868977 0.575363 0.178681 0.507517
C19   C     C_2   0.731089 0.521456 0.270471 -0.158739
C20   C     C_3   0.688807 0.516848 0.324208 0.157576
C21   C     C_1   0.983435 0.482090 0.342309 0.292066
C22   C     C_2   0.023784 0.480166 0.294672 -0.207661
C23   C     C_2   0.891468 0.502600 0.255594 0.104487
C24   C     C_R   0.012885 0.502629 0.101703 -0.064464
C25   C     C_R   0.078228 0.429473 0.126842 -0.058891
C26   C     C_R   0.183362 0.356623 0.100772 -0.086535
C27   C     C_R   0.907249 0.575868 0.127954 -0.049850
C28   C     C_2   0.838384 0.524459 0.358677 -0.484777
H41   H     H_    0.152439 0.462997 0.283844 0.190937
H42   H     H_    0.235916 0.299244 0.118934 0.168135
C29   C     C_2   0.360215 0.484011 0.641226 -0.524744
C30   C     C_R   0.200254 0.427941 0.973126 0.042331
C31   C     C_R   0.024006 0.576410 0.974066 0.038341
C32   C     C_R   0.132223 0.502220 0.948252 0.091459
C33   C     C_R   0.307007 0.355896 0.945531 -0.197253
C34   C     C_R   0.345663 0.356831 0.895814 -0.067925
C35   C     C_R   0.280369 0.429575 0.870926 -0.061821
C36   C     C_R   0.173205 0.502384 0.896983 -0.056308
C37   C     C_R   0.107511 0.575465 0.871798 -0.071086
C38   C     C_R   0.151542 0.575515 0.821463 0.619159
N2    N     N_R   0.257857 0.503723 0.796219 -0.151923
C39   C     C_R   0.320935 0.430817 0.820503 0.590031
C40   C     C_2   0.466930 0.495174 0.731188 0.307549
C41   C     C_3   0.509758 0.492290 0.675903 0.058260
C42   C     C_1   0.211730 0.520205 0.657423 0.298760
C43   C     C_2   0.171646 0.518301 0.704427 -0.244400
C44   C     C_2   0.304153 0.504961 0.744381 -0.019195
O26   O     O_2   0.412958 0.366783 0.798231 -0.577901
C45   C     C_R   0.159995 0.427954 0.024360 0.043204
C46   C     C_R   0.052683 0.502428 0.050286 0.084466
C47   C     C_R   0.984580 0.576683 0.025403 0.044105
C48   C     C_R   0.223525 0.355770 0.050961 -0.199643
H43   H     H_    0.428398 0.299695 0.876848 0.169467
H44   H     H_    0.364131 0.297016 0.961120 0.126995
H45   H     H_    0.305259 0.296677 0.034498 0.127489
O27   O     O_2   0.778628 0.640029 0.201036 -0.593944
C49   C     C_R   0.841760 0.648570 0.103029 -0.083373
H46   H     H_    0.630955 0.533390 0.243341 0.167215
H47   H     H_    0.760240 0.706100 0.122132 0.169418
C50   C     C_R   0.958922 0.648096 0.947275 -0.188560
C51   C     C_R   0.999943 0.647527 0.897561 -0.036791
O28   O     O_2   0.097101 0.640308 0.800446 -0.576214
C52   C     C_R   0.879110 0.649120 0.053155 -0.198690
H48   H     H_    0.875115 0.706510 0.963500 0.126851
H49   H     H_    0.946480 0.704590 0.879272 0.168662
H50   H     H_    0.042519 0.529659 0.714778 0.216599
H51   H     H_    0.822649 0.708213 0.037640 0.128364
H52   H     H_    0.827676 0.564615 0.395813 0.170804
H53   H     H_    0.375866 0.451728 0.602457 0.188943
C53   C     C_R   0.845733 0.831473 0.464560 0.179353
C54   C     C_R   0.779928 0.924652 0.469124 -0.011813
C55   C     C_R   0.645802 0.112159 0.480624 -0.028164
C56   C     C_R   0.788024 0.077099 0.451902 -0.075537
C57   C     C_R   0.855696 0.985641 0.447186 -0.181419
C58   C     C_R   0.579732 0.205943 0.488107 0.267925
H54   H     H_    0.850382 0.119441 0.432831 0.169516
H55   H     H_    0.966782 0.963246 0.425508 0.179145
C59   C     C_R   0.435318 0.235750 0.515514 -0.546626
C60   C     C_R   0.616200 0.804314 0.511570 0.238693
C61   C     C_R   0.551108 0.897092 0.518042 -0.016764
C62   C     C_R   0.632005 0.957501 0.496230 0.012566
C63   C     C_R   0.407675 0.931144 0.545936 -0.087139
C64   C     C_R   0.341207 0.021884 0.550889 -0.177793
C65   C     C_R   0.418079 0.082964 0.529462 -0.012564
C66   C     C_R   0.566102 0.051097 0.502413 0.007834
C67   C     C_R   0.350499 0.175098 0.534263 0.174905
C68   C     C_R   0.759219 0.772582 0.484100 -0.539731
H56   H     H_    0.229305 0.043093 0.572199 0.184022
H57   H     H_    0.342756 0.888423 0.563985 0.171080
H58   H     H_    0.383282 0.306760 0.519869 0.182204
H59   H     H_    0.808842 0.701277 0.480408 0.177256
N3    N     N_R   0.594413 0.503561 0.769645 0.250146
O29   O     O_R   0.737701 0.452077 0.764838 -0.341544
O30   O     O_R   0.568844 0.564756 0.809312 -0.410724

loop_
_geom_bond_atom_site_label_1
_geom_bond_atom_site_label_2
_geom_bond_distance
_ccdc_geom_bond_type
C12   H28   1.107847 S    
H38   C16   1.110622 S    
C11   H26   1.109912 S    
C46   C47   1.423725 A    
C62   C66   1.420321 A    
Ba1   O16   2.798412 S    
C19   C20   1.518394 S    
C55   C58   1.422928 A    
C50   H48   1.075482 S    
C36   C37   1.409489 A    
O12   Ba2   2.794321 S    
P4    O13   1.530037 S    
C14   H33   1.110589 S    
C4    C5    1.522268 S    
C5    H10   1.110637 S    
N1    C18   1.389666 Am   
C22   H41   1.083904 S    
C13   H32   1.108661 S    
O4    P6    1.545596 D    
C1    H24   1.110410 S    
C55   C66   1.419251 A    
C61   C62   1.417534 A    
C2    H5    1.108720 S    
P1    O1    1.500434 D    
C26   C48   1.393813 A    
H1    C10   1.109326 S    
C29   H53   1.086238 S    
C19   C23   1.360827 D    
C12   H29   1.110616 S    
C17   N1    1.387510 Am   
C37   C38   1.419056 A    
C6    C7    1.522513 S    
O13   Ba2   2.907746 S    
C38   N2    1.386408 Am   
O1    Ba1   2.793948 S    
O11   C2    1.403037 S    
C58   C59   1.395227 A    
C7    H17   1.110943 S    
C51   H49   1.083636 S    
C52   H51   1.075558 S    
C31   C47   1.433790 A    
C8    C9    1.523087 S    
C2    H4    1.110278 S    
C57   H55   1.080819 S    
P2    O10   1.748264 S    
C45   C48   1.417482 A    
C28   H52   1.086309 S    
P7    O21   1.565990 D    
C30   C45   1.433669 A    
C1    H2    1.111066 S    
C32   C36   1.436699 A    
O6    P6    1.755012 S    
P5    O18   1.544695 D    
N3    O30   1.301585 A    
C12   H27   1.110842 S    
C11   C12   1.521731 S    
C10   H23   1.106329 S    
P2    Ba1   3.409123 S    
C31   C50   1.417567 A    
P2    C58   1.856604 S    
C47   C52   1.416796 A    
Ba1   Ba2   4.520395 S    
C17   C25   1.419209 A    
O16   P7    1.751836 S    
O6    C10   1.404452 S    
C34   C35   1.399959 A    
P5    O17   1.751698 S    
C21   C22   1.334546 D    
C38   O28   1.222108 D    
C14   H34   1.107096 S    
C11   O22   1.399096 S    
O19   C13   1.402791 S    
C13   H31   1.110009 S    
C53   C54   1.415930 A    
C11   H25   1.109110 S    
P7    C60   1.838026 S    
C25   C26   1.400115 A    
C37   C51   1.399863 A    
Ba2   O20   2.797844 S    
C54   C57   1.402183 A    
C55   C56   1.410048 A    
C31   C32   1.422784 A    
C56   H54   1.078192 S    
C17   O25   1.222063 D    
P8    C20   1.860583 S    
O16   Ba2   2.890812 S    
P4    O15   1.751572 S    
C60   C68   1.390304 A    
C4    H8    1.101707 S    
C15   H37   1.109720 S    
C13   C14   1.518870 S    
C19   H46   1.085519 S    
C18   O27   1.222041 D    
P1    O5    1.751587 S    
P1    O2    1.530034 S    
O10   C8    1.392880 S    
C65   C67   1.404480 A    
C68   H59   1.081935 S    
C9    H20   1.110902 S    
C4    O15   1.396962 S    
P4    Ba2   3.368717 S    
P2    O20   1.580457 S    
C33   H44   1.075444 S    
C64   C65   1.400971 A    
P3    O8    1.732216 S    
P2    O7    1.491177 D    
C2    C3    1.518828 S    
P6    C41   1.871968 S    
C6    H13   1.099982 S    
C39   O26   1.222112 D    
Ba2   O21   2.873773 S    
C9    H21   1.105841 S    
C42   C43   1.328269 D    
O3    Ba1   2.735085 S    
P3    O11   1.748548 S    
N3    O29   1.299582 A    
C16   H40   1.110883 S    
C18   C27   1.417469 A    
C49   C52   1.393197 A    
C1    H3    1.110707 S    
C45   C46   1.422803 A    
C34   H43   1.083681 S    
C24   C46   1.436900 A    
C43   H50   1.083563 S    
C7    H16   1.107211 S    
C54   C62   1.420198 A    
C48   H45   1.075532 S    
O2    Ba2   2.734132 S    
C29   C41   1.514044 S    
P3    C67   1.842368 S    
P8    O23   1.545571 D    
C35   C36   1.408152 A    
C14   H35   1.110813 S    
C20   C28   1.509965 S    
N1    C23   1.468226 S    
C8    H18   1.104958 S    
P5    C53   1.849134 S    
C33   C34   1.393032 A    
C3    H6    1.111024 S    
O14   Ba2   2.734578 S    
C59   C67   1.397462 A    
C5    H12   1.110823 S    
O7    Ba1   2.873468 S    
C50   C51   1.394001 A    
P4    O12   1.500655 D    
O8    Ba1   2.746916 S    
C40   C41   1.538176 S    
O5    C6    1.396436 S    
C40   C44   1.371121 D    
C4    H9    1.108782 S    
C15   O24   1.403779 S    
C53   C68   1.395634 A    
P4    C21   1.842454 S    
C30   C33   1.416833 A    
C65   C66   1.418168 A    
C61   C63   1.403883 A    
N2    C44   1.467277 S    
Ba1   O20   2.891640 S    
C5    H11   1.107317 S    
N2    C39   1.388291 Am   
C63   C64   1.382795 A    
C15   C16   1.520460 S    
C8    H19   1.108803 S    
C24   C25   1.409005 A    
C6    H14   1.106932 S    
C30   C32   1.423732 A    
C26   H42   1.083693 S    
C3    H7    1.110803 S    
C24   C27   1.407799 A    
C27   C49   1.400407 A    
O2    Ba1   2.907005 S    
C9    H22   1.110575 S    
P1    C42   1.843051 S    
Ba1   O13   2.733568 S    
C21   C28   1.314830 D    
C35   C39   1.416745 A    
P1    Ba1   3.368238 S    
C16   H39   1.110762 S    
O14   P8    1.748139 S    
C7    H15   1.110652 S    
C22   C23   1.512805 S    
P3    O9    1.544813 D    
O3    P6    1.747747 S    
C60   C61   1.407306 A    
C49   H47   1.083719 S    
C29   C42   1.313463 D    
C64   H56   1.079446 S    
C59   H58   1.081721 S    
P7    O22   1.748737 S    
C3    H30   1.106994 S    
C15   H36   1.106894 S    
C43   C44   1.506091 S    
C56   C57   1.395408 A    
C1    C10   1.520438 S    
C40   N3    1.442296 S    
P8    O24   1.754098 S    
P5    O19   1.748451 S    
C63   H57   1.079010 S    
O17   Ba2   2.747332 S    
