data_mof_unit_pretest_183.cif
_audit_creation_date              2012-12-10T19:10:02-0500
_audit_creation_method            fapswitch 2.2
_symmetry_space_group_name_H-M    P1
_symmetry_Int_Tables_number       1
_space_group_crystal_system       triclinic
_cell_length_a                    10.822005
_cell_length_b                    10.818767
_cell_length_c                    9.586789
_cell_angle_alpha                 89.879404
_cell_angle_beta                  90.880321
_cell_angle_gamma                 91.664894
_cell_volume                      1121.8206474

loop_
_atom_site_label
_atom_site_type_symbol
_atom_type_description
_atom_site_fract_x
_atom_site_fract_y
_atom_site_fract_z
_atom_type_partial_charge
C1    C     C_R   0.503811 0.262695 0.499958 0.786700
C2    C     C_R   0.248270 0.719825 0.038770 -0.226883
C3    C     C_R   0.932563 0.554095 0.391541 -0.262573
C4    C     C_R   0.871193 0.496835 0.502729 -0.076551
C5    C     C_R   0.938472 0.443380 0.613549 0.000540
C6    C     C_R   0.066661 0.449264 0.610471 -0.249783
C7    C     C_R   0.128258 0.505397 0.498382 -0.077328
C8    C     C_R   0.060631 0.560887 0.388803 0.033631
C9    C     C_R   0.885969 0.425471 0.866002 -0.160174
C10   C     C_R   0.828299 0.363167 0.976395 -0.157095
C11   C     C_R   0.763149 0.251648 0.952267 -0.116974
C12   C     C_R   0.262423 0.502496 0.499053 0.774388
C13   C     C_R   0.756291 0.201805 0.817882 -0.117870
C14   C     C_R   0.813560 0.263929 0.707070 -0.116687
C15   C     C_R   0.878531 0.376471 0.730540 0.133155
C16   C     C_R   0.498995 0.063986 0.622876 0.117744
C17   C     C_R   0.518281 0.130246 0.500656 -0.097708
C18   C     C_R   0.556208 0.066730 0.381770 -0.226414
C19   C     C_R   0.556460 0.937470 0.382674 -0.159274
C20   C     C_R   0.517544 0.871468 0.501637 -0.102962
C21   C     C_R   0.498920 0.936989 0.624370 0.113290
C22   C     C_3   0.394783 0.930271 0.725279 -0.489732
C23   C     C_R   0.503580 0.737749 0.500077 0.793662
C24   C     C_3   0.396009 0.070302 0.722588 -0.473783
C25   C     C_R   0.591996 0.560169 0.074806 0.232860
C26   C     C_R   0.419980 0.423534 0.070626 0.192363
C27   C     C_R   0.418965 0.427771 0.922170 -0.086484
C28   C     C_R   0.593172 0.558516 0.928176 0.288395
C29   C     C_3   0.632477 0.691218 0.921040 -0.508736
C30   C     C_3   0.627261 0.694026 0.079240 -0.528177
C31   C     C_R   0.737379 0.497683 0.501061 0.788035
C32   C     C_R   0.256864 0.782570 0.167275 0.445406
C33   C     C_R   0.188829 0.737092 0.282347 0.118867
C34   C     C_R   0.119939 0.624005 0.268454 0.045965
C35   C     C_R   0.108473 0.567143 0.137568 -0.217937
C36   C     C_R   0.172176 0.614774 0.023524 -0.199724
Cu1   Cu    Cu3+1 0.499990 0.499980 0.640670 0.938833
Cu2   Cu    Cu3+1 0.500010 0.500020 0.359330 0.933092
H1    H     H_    0.299215 0.753056 0.949554 0.125791
H2    H     H_    0.718022 0.203862 0.037672 0.115303
H3    H     H_    0.706724 0.114936 0.799770 0.125350
H4    H     H_    0.807211 0.224670 0.603259 0.101299
H5    H     H_    0.580398 0.115982 0.287101 0.153889
H6    H     H_    0.582041 0.890029 0.289125 0.159173
H7    H     H_    0.308869 0.886802 0.680774 0.203289
H8    H     H_    0.423400 0.894481 0.828695 0.177419
H9    H     H_    0.311319 0.109868 0.675766 0.192649
H10   H     H_    0.428902 0.113018 0.821399 0.207092
H11   H     H_    0.351906 0.372699 0.862770 0.151574
H12   H     H_    0.727758 0.703725 0.880589 0.197079
H13   H     H_    0.562525 0.749101 0.869831 0.212656
H14   H     H_    0.718905 0.711684 0.130421 0.190377
H15   H     H_    0.550874 0.750545 0.117081 0.218546
H16   H     H_    0.052885 0.482979 0.125117 0.140244
H17   H     H_    0.165086 0.568225 0.923743 0.155219
H18   H     H_    0.880540 0.596642 0.307498 0.148119
H19   H     H_    0.118534 0.405931 0.694115 0.145070
H20   H     H_    0.934512 0.512764 0.885371 0.125246
H21   H     H_    0.833059 0.401898 0.080426 0.132720
N1    N     N_R   0.500790 0.500930 0.147930 -0.202866
N2    N     N_R   0.500790 0.500890 0.852020 -0.203776
O1    O     O_R   0.500000 0.319640 0.618810 -0.572596
O2    O     O_R   0.500010 0.319680 0.381230 -0.602999
O3    O     O_R   0.319640 0.499990 0.618790 -0.590894
O4    O     O_R   0.319650 0.500030 0.381210 -0.591995
O5    O     O_R   0.499990 0.680320 0.618770 -0.582444
O6    O     O_R   0.500000 0.680360 0.381190 -0.569795
O7    O     O_R   0.680350 0.499970 0.618790 -0.565971
O8    O     O_R   0.680360 0.500010 0.381210 -0.589535
C37   C     C_3   0.325429 0.334188 0.134345 -0.366849
C38   C     C_3   0.344117 0.198048 0.094694 -0.394614
C39   C     C_3   0.233675 0.144390 0.010671 -0.819732
H22   H     H_    0.148906 0.144906 0.074553 0.257649
H23   H     H_    0.217916 0.199223 0.914383 0.236882
H24   H     H_    0.250632 0.047647 0.980292 0.262058
H25   H     H_    0.431108 0.187735 0.036780 0.204165
H26   H     H_    0.353701 0.141834 0.191256 0.257405
H27   H     H_    0.323553 0.335890 0.247265 0.243210
H28   H     H_    0.232384 0.362749 0.100097 0.187448
O9    O     O_3   0.330050 0.888414 0.182164 -0.776391
H29   H     H_    0.377708 0.902225 0.095741 0.302206
C40   C     C_3   0.184506 0.812485 0.415443 -0.394436
C41   C     C_3   0.061654 0.879254 0.424025 -0.352952
C42   C     C_3   0.057302 0.960065 0.553970 -0.850771
H30   H     H_    0.070207 0.903324 0.649520 0.255388
H31   H     H_    0.130529 0.033894 0.550075 0.251696
H32   H     H_    0.966138 0.004318 0.558751 0.242110
H33   H     H_    0.049683 0.938683 0.330262 0.227239
H34   H     H_    0.983230 0.810885 0.426764 0.221903
H35   H     H_    0.197000 0.752274 0.508016 0.170098
H36   H     H_    0.261220 0.882755 0.419861 0.246980

loop_
_geom_bond_atom_site_label_1
_geom_bond_atom_site_label_2
_ccdc_geom_bond_type
C16   C21   A    
C37   H27   S    
C35   C36   A    
C42   H32   S    
C1    O1    A    
C13   H3    S    
Cu1   O1    S    
C7    C8    A    
C25   C28   A    
C26   C27   A    
Cu1   Cu2   S    
C23   O5    A    
C28   C29   S    
C42   H31   S    
C9    H20   S    
C5    C6    A    
C12   O3    A    
Cu1   O7    S    
C2    C32   A    
C18   C19   A    
C23   O6    A    
C27   N2    A    
C2    H1    S    
C19   C20   A    
C16   C17   A    
C20   C23   S    
C37   C38   S    
C25   N1    A    
C33   C40   S    
C14   H4    S    
C28   N2    A    
C41   H33   S    
Cu2   O8    S    
C16   C24   S    
C13   C14   A    
C35   H16   S    
C6    H19   S    
C31   O7    A    
C39   H24   S    
C1    O2    A    
C9    C10   A    
C33   C34   A    
C29   H12   S    
C7    C12   S    
C41   H34   S    
C30   H15   S    
C24   H10   S    
C42   H30   S    
C39   H22   S    
C39   H23   S    
C3    C8    A    
C4    C5    A    
C40   H36   S    
C29   C30   S    
C32   O9    S    
C3    H18   S    
C41   C42   S    
Cu2   O4    S    
C34   C35   A    
Cu1   O5    S    
C17   C18   A    
C8    C34   S    
Cu2   O6    S    
Cu2   N1    S    
C22   H8    S    
C26   C37   S    
C22   C24   S    
C3    C4    A    
C38   H26   S    
Cu1   O3    S    
C19   H6    S    
Cu2   O2    S    
C29   H13   S    
C2    C36   A    
C25   C30   S    
C30   H14   S    
C37   H28   S    
C24   H9    S    
O9    H29   S    
Cu1   N2    S    
C6    C7    A    
C12   O4    A    
C1    C17   S    
C40   H35   S    
C32   C33   A    
C10   H21   S    
C9    C15   A    
C38   C39   S    
C36   H17   S    
C18   H5    S    
C11   C13   A    
C38   H25   S    
C11   H2    S    
C5    C15   S    
C4    C31   S    
C10   C11   A    
C31   O8    A    
C22   H7    S    
C20   C21   A    
C40   C41   S    
C14   C15   A    
C21   C22   S    
C26   N1    A    
C27   H11   S    
