data_mof_unit_pretest_949.cif
_audit_creation_date              2012-10-26T19:15:02-0400
_audit_creation_method            fapswitch 2.2
_symmetry_space_group_name_H-M    P1
_symmetry_Int_Tables_number       1
_space_group_crystal_system       triclinic
_cell_length_a                    10.911617
_cell_length_b                    10.852796
_cell_length_c                    9.543138
_cell_angle_alpha                 89.579082
_cell_angle_beta                  90.699899
_cell_angle_gamma                 89.352866
_cell_volume                      1129.92517563

loop_
_atom_site_label
_atom_site_type_symbol
_atom_type_description
_atom_site_fract_x
_atom_site_fract_y
_atom_site_fract_z
_atom_type_partial_charge
C1    C     C_R   0.504058 0.262373 0.500711 0.562791
C2    C     C_R   0.491671 0.936277 0.623378 0.031812
C3    C     C_3   0.385466 0.940190 0.721334 -0.047572
C4    C     C_R   0.261963 0.501031 0.498596 0.566372
C5    C     C_3   0.410449 0.076461 0.738645 -0.027977
C6    C     C_R   0.587391 0.561935 0.074407 0.224579
C7    C     C_R   0.422239 0.427817 0.073890 0.026215
C8    C     C_R   0.420085 0.430142 0.924944 0.026402
C9    C     C_R   0.589823 0.559497 0.927277 0.178298
C10   C     C_3   0.619104 0.693354 0.921259 -0.248058
C11   C     C_3   0.611421 0.696067 0.079317 -0.270010
C12   C     C_R   0.938997 0.496293 0.620431 -0.025001
C13   C     C_R   0.499113 0.737836 0.499464 0.600605
C14   C     C_R   0.737379 0.491784 0.500098 0.626969
C15   C     C_R   0.065291 0.490611 0.621895 -0.056184
C16   C     C_R   0.128477 0.490648 0.495371 -0.005304
C17   C     C_R   0.060706 0.471690 0.369191 0.108489
C18   C     C_R   0.935288 0.443480 0.376088 0.247122
C19   C     C_R   0.870417 0.475559 0.498937 0.010321
C20   C     C_3   0.934265 0.595727 0.728020 0.146645
C21   C     C_3   0.073034 0.581839 0.738345 -0.184954
C22   C     C_R   0.504776 0.062519 0.627766 0.048603
C23   C     C_R   0.517665 0.129279 0.502926 0.015950
C24   C     C_R   0.542593 0.064869 0.379045 -0.099989
C25   C     C_R   0.540100 0.936480 0.378171 -0.105900
C26   C     C_R   0.507021 0.871259 0.499243 0.048139
Cu1   Cu    Cu3+1 0.499990 0.499980 0.640670 1.015906
Cu2   Cu    Cu3+1 0.500010 0.500020 0.359330 1.044770
H1    H     H_    0.399153 0.885174 0.818509 0.156738
H2    H     H_    0.125635 0.664924 0.709813 0.210084
H3    H     H_    0.104786 0.537073 0.837488 0.147686
H4    H     H_    0.558644 0.113088 0.281610 0.172105
H5    H     H_    0.559299 0.889523 0.281719 0.141588
H6    H     H_    0.702960 0.258400 0.200163 0.372040
H7    H     H_    0.897442 0.931546 0.730525 0.390505
H8    H     H_    0.333144 0.139065 0.708128 0.161184
H9    H     H_    0.359127 0.369538 0.129333 0.161216
H10   H     H_    0.353586 0.375619 0.868666 0.146032
H11   H     H_    0.713489 0.709894 0.884989 0.204687
H12   H     H_    0.547090 0.749483 0.868358 0.162587
H13   H     H_    0.699909 0.717198 0.132334 0.180308
H14   H     H_    0.530223 0.749048 0.115060 0.148228
H15   H     H_    0.886015 0.568516 0.825107 0.146492
I1    I     I_    0.126627 0.523063 0.166099 -0.236620
I2    I     I_    0.496485 0.113334 0.936974 -0.410033
I3    I     I_    0.213901 0.912156 0.615282 -0.259750
N1    N     N_R   0.500790 0.500930 0.147930 -0.242820
N2    N     N_R   0.500790 0.500890 0.852020 -0.245809
O1    O     O_R   0.500000 0.319640 0.618810 -0.498584
O2    O     O_2   0.961638 0.274193 0.174543 -0.224453
O3    O     O_3   0.748301 0.277848 0.287632 -0.512447
O4    O     O_2   0.955293 0.766411 0.520790 -0.240685
O5    O     O_2   0.754857 0.750233 0.629987 -0.310876
O6    O     O_3   0.928971 0.853419 0.772378 -0.485566
O7    O     O_R   0.500010 0.319680 0.381230 -0.501597
O8    O     O_R   0.319650 0.499970 0.618810 -0.521747
O9    O     O_R   0.319660 0.500010 0.381230 -0.485997
O10   O     O_R   0.499990 0.680320 0.618770 -0.489710
O11   O     O_R   0.500000 0.680360 0.381190 -0.517042
O12   O     O_R   0.680340 0.499990 0.618770 -0.484465
O13   O     O_R   0.680350 0.500030 0.381190 -0.440441
O14   O     O_2   0.827568 0.450974 0.122559 -0.302107
S1    S     S_3+6 0.868120 0.361100 0.234632 0.052532
S2    S     S_3+6 0.890449 0.744063 0.656577 -0.002303

loop_
_geom_bond_atom_site_label_1
_geom_bond_atom_site_label_2
_ccdc_geom_bond_type
C4    O9    A    
Cu1   N2    S    
C23   C24   A    
C8    N2    A    
Cu2   N1    S    
C20   S2    S    
O14   S1    D    
C13   O11   A    
C14   O12   A    
C9    C10   S    
C3    I3    S    
C12   C15   A    
Cu2   O13   S    
C12   C20   S    
C6    C9    A    
C24   H4    S    
C2    C3    S    
C1    O7    A    
C17   I1    S    
C7    C8    A    
C2    C26   A    
C5    I2    S    
Cu2   O9    S    
C4    O8    A    
H7    O6    S    
O2    S1    D    
C21   H3    S    
H6    O3    S    
C8    H10   S    
C9    N2    A    
C12   C19   A    
C2    C22   A    
C25   C26   A    
Cu2   O7    S    
C17   C18   A    
C1    C23   S    
Cu1   O12   S    
C7    H9    S    
C13   C26   S    
O5    S2    D    
C18   S1    S    
C10   C11   S    
C4    C16   S    
C15   C16   A    
C5    H8    S    
C6    N1    A    
C21   H2    S    
C15   C21   S    
C20   H15   S    
O3    S1    S    
C24   C25   A    
O6    S2    S    
C11   H14   S    
C10   H12   S    
C18   C19   A    
O4    S2    D    
Cu2   O11   S    
C6    C11   S    
C3    H1    S    
C22   C23   A    
C16   C17   A    
C13   O10   A    
C3    C5    S    
C20   C21   S    
Cu1   O8    S    
C14   O13   A    
C1    O1    A    
C14   C19   S    
C5    C22   S    
Cu1   O1    S    
C11   H13   S    
C25   H5    S    
C10   H11   S    
Cu1   Cu2   S    
Cu1   O10   S    
C7    N1    A    
