data_mof_unit_pretest_1339.cif
_audit_creation_date              2012-12-11T19:09:25-0500
_audit_creation_method            fapswitch 2.2
_symmetry_space_group_name_H-M    P1
_symmetry_Int_Tables_number       1
_space_group_crystal_system       triclinic
_cell_length_a                    8.205649
_cell_length_b                    15.010478
_cell_length_c                    27.047644
_cell_angle_alpha                 98.224801
_cell_angle_beta                  93.076795
_cell_angle_gamma                 81.227143
_cell_volume                      3256.90785236

loop_
_atom_site_label
_atom_site_type_symbol
_atom_type_description
_atom_site_fract_x
_atom_site_fract_y
_atom_site_fract_z
_atom_type_partial_charge
Ba1   Ba    Ba6+2 0.860050 0.456430 0.522540 1.645233
Ba2   Ba    Ba6+2 0.329780 0.543490 0.477450 1.639498
C1    C     C_3   0.758274 0.119290 0.648177 -0.367920
C2    C     C_3   0.705112 0.212011 0.631197 0.365195
C3    C     C_3   0.495922 0.670647 0.630623 0.292541
C4    C     C_3   0.492447 0.691664 0.687274 -0.354419
C5    C     C_3   0.028163 0.741319 0.346461 0.322594
C6    C     C_3   0.031818 0.768942 0.294317 -0.074554
C7    C     C_3   0.488607 0.785818 0.362021 0.347983
C8    C     C_3   0.429830 0.875639 0.341889 -0.146163
C9    C     C_R   0.014622 0.434922 0.177762 0.595218
C10   C     C_R   0.900493 0.592103 0.180475 0.590663
C11   C     C_2   0.750401 0.560298 0.273814 -0.087342
C12   C     C_3   0.160831 0.263202 0.655290 0.334668
C13   C     C_3   0.730523 0.589996 0.328990 -0.056467
C14   C     C_1   0.983880 0.485876 0.342857 0.039518
C15   C     C_2   0.024258 0.482217 0.295195 -0.104041
C16   C     C_2   0.899389 0.518761 0.257035 0.188240
C17   C     C_R   0.017073 0.509493 0.102718 -0.116089
C18   C     C_R   0.054429 0.431282 0.127040 -0.030541
C19   C     C_R   0.130137 0.350342 0.100069 -0.056386
C20   C     C_R   0.940138 0.591105 0.129807 -0.016827
C21   C     C_2   0.844540 0.532277 0.361008 -0.283658
C22   C     C_2   0.352490 0.474477 0.640011 -0.283259
C23   C     C_3   0.149224 0.238003 0.707333 -0.314105
C24   C     C_R   0.176486 0.420166 0.973514 0.026183
C25   C     C_R   0.051584 0.580321 0.975133 0.010221
C26   C     C_R   0.133267 0.498634 0.948829 0.047247
C27   C     C_R   0.260560 0.340869 0.945949 -0.103215
C28   C     C_R   0.297918 0.338156 0.896211 -0.056049
C29   C     C_R   0.254409 0.414360 0.871253 -0.018656
C30   C     C_R   0.172130 0.495156 0.897329 -0.116048
C31   C     C_R   0.129236 0.572061 0.871940 -0.027707
C32   C     C_R   0.172934 0.566354 0.821013 0.613824
C33   C     C_R   0.292019 0.410332 0.820574 0.570784
C34   C     C_3   0.191628 0.257111 0.409722 0.324075
C35   C     C_2   0.439694 0.438054 0.725849 -0.084215
C36   C     C_3   0.460153 0.410998 0.670456 -0.047123
C37   C     C_1   0.208920 0.516409 0.657279 0.032320
C38   C     C_2   0.166780 0.517574 0.704532 -0.103795
C39   C     C_2   0.290867 0.480088 0.742670 0.187943
C40   C     C_R   0.135069 0.423245 0.024603 0.026666
C41   C     C_R   0.056375 0.505774 0.051235 0.047316
C42   C     C_R   0.016754 0.584529 0.026882 0.009585
C43   C     C_R   0.169281 0.346209 0.050261 -0.100383
C44   C     C_R   0.906052 0.669751 0.105538 0.167368
C45   C     C_3   0.139899 0.163106 0.394395 -0.135300
C46   C     C_R   0.005702 0.655218 0.948409 -0.128138
C47   C     C_R   0.043583 0.652179 0.898270 0.164317
C48   C     C_R   0.944702 0.665724 0.055500 -0.131607
C49   C     C_R   0.353819 0.176489 0.535651 0.014589
C50   C     C_R   0.576817 0.209815 0.489604 0.064215
C51   C     C_R   0.758183 0.771211 0.486544 -0.291291
C52   C     C_R   0.849000 0.830456 0.469199 0.017287
C53   C     C_R   0.792777 0.923947 0.475743 -0.132156
C54   C     C_R   0.644019 0.959696 0.500812 0.007904
C55   C     C_R   0.559876 0.898280 0.521695 -0.016117
C56   C     C_3   0.979091 0.736611 0.587541 0.312982
C57   C     C_R   0.576320 0.054037 0.506183 -0.006986
C58   C     C_R   0.426949 0.084480 0.532356 -0.015312
C59   C     C_R   0.351830 0.022306 0.553703 -0.097662
C60   C     C_R   0.417710 0.931593 0.548983 -0.056166
C61   C     C_R   0.647302 0.118529 0.484342 -0.143871
C62   C     C_R   0.433284 0.238719 0.516007 -0.286791
C63   C     C_R   0.619608 0.804380 0.514730 0.025842
C64   C     C_3   0.962546 0.839144 0.602830 -0.385272
C65   C     C_3   0.694929 0.342315 0.371917 0.297040
C66   C     C_3   0.699307 0.319403 0.315348 -0.358534
H1    H     H_    0.749954 0.209452 0.592896 0.075508
H2    H     H_    0.196304 0.131285 0.358358 0.094900
H3    H     H_    0.003473 0.170916 0.388792 0.126709
H4    H     H_    0.856823 0.717348 0.576497 -0.000929
H5    H     H_    0.062249 0.717515 0.555567 0.069064
H6    H     H_    0.873574 0.860560 0.633319 0.131097
H7    H     H_    0.917938 0.875433 0.570753 0.061995
H8    H     H_    0.084389 0.858657 0.616038 0.120717
H9    H     H_    0.816308 0.359534 0.386327 -0.000576
H10   H     H_    0.598154 0.401762 0.381252 0.081295
H11   H     H_    0.894388 0.101091 0.647478 0.147235
H12   H     H_    0.800269 0.262625 0.304873 0.129297
H13   H     H_    0.720755 0.379501 0.298476 0.073343
H14   H     H_    0.579741 0.299129 0.300292 0.136235
H15   H     H_    0.567965 0.224682 0.630196 -0.070621
H16   H     H_    0.701863 0.066682 0.622697 0.070718
H17   H     H_    0.373149 0.654807 0.616277 0.018213
H18   H     H_    0.591084 0.610515 0.620817 0.071200
H19   H     H_    0.394621 0.749824 0.698355 0.135705
H20   H     H_    0.466553 0.631484 0.703342 0.073139
H21   H     H_    0.613757 0.709065 0.702532 0.134481
H22   H     H_    0.717109 0.120115 0.686708 0.122878
H23   H     H_    0.143150 0.300191 0.735028 0.120977
H24   H     H_    0.120514 0.679449 0.348468 0.082548
H25   H     H_    0.904263 0.725033 0.352488 -0.062685
H26   H     H_    0.040543 0.707013 0.266365 0.117653
H27   H     H_    0.143360 0.800773 0.290845 0.130147
H28   H     H_    0.624899 0.771703 0.359243 -0.036261
H29   H     H_    0.456277 0.793382 0.401983 0.062016
H30   H     H_    0.298089 0.899291 0.350605 0.119960
H31   H     H_    0.074955 0.327187 0.652266 0.091242
H32   H     H_    0.441590 0.865200 0.300625 0.125658
H33   H     H_    0.148220 0.453655 0.283762 0.132482
H34   H     H_    0.159689 0.288925 0.117485 0.121279
H35   H     H_    0.536625 0.412882 0.751411 0.120166
H36   H     H_    0.362251 0.275145 0.877236 0.121627
H37   H     H_    0.301251 0.279011 0.961635 0.067369
H38   H     H_    0.225418 0.280511 0.032943 0.067139
H39   H     H_    0.653321 0.584815 0.248106 0.117628
H40   H     H_    0.936837 0.718190 0.964958 0.065541
H41   H     H_    0.289258 0.273977 0.650396 -0.055320
H42   H     H_    0.042357 0.545546 0.715760 0.132331
H43   H     H_    0.917976 0.729212 0.040566 0.065593
H44   H     H_    0.826247 0.545236 0.400975 0.083288
H45   H     H_    0.382952 0.473396 0.601362 0.079678
H46   H     H_    0.377685 0.309282 0.518480 0.072156
H47   H     H_    0.239884 0.042317 0.574176 0.107845
H48   H     H_    0.755192 0.100005 0.462043 0.093131
H49   H     H_    0.802966 0.698956 0.481400 0.064843
H50   H     H_    0.869260 0.966421 0.461768 0.082874
H51   H     H_    0.036064 0.207305 0.710259 0.148039
H52   H     H_    0.352175 0.888001 0.566470 0.098815
H53   H     H_    0.258437 0.188569 0.716027 0.119215
H54   H     H_    0.326942 0.249751 0.416565 -0.016503
H55   H     H_    0.128806 0.289324 0.444489 0.073382
N1    N     N_R   0.939032 0.514924 0.204292 -0.429433
N2    N     N_R   0.251422 0.485796 0.795560 -0.428653
O1    O     O_2   0.906490 0.548660 0.619040 -0.459943
O2    O     O_3   0.660668 0.266487 0.391965 -0.636816
O3    O     O_3   0.117095 0.192621 0.619733 -0.615063
O4    O     O_2   0.283210 0.451320 0.380930 -0.453284
O5    O     O_3   0.051220 0.451340 0.441130 -0.502231
O6    O     O_3   0.503420 0.617610 0.414270 -0.470861
O7    O     O_3   0.151127 0.306190 0.369375 -0.642759
O8    O     O_3   0.617160 0.609950 0.527080 -0.477872
O9    O     O_3   0.088220 0.664410 0.439630 -0.491318
O10   O     O_2   0.189216 0.824717 0.472700 -0.480965
O11   O     O_3   0.067277 0.812720 0.382258 -0.611749
O12   O     O_3   0.138490 0.548590 0.558860 -0.496005
O13   O     O_3   0.572560 0.389970 0.472910 -0.488206
O14   O     O_2   0.345680 0.723560 0.528460 -0.464762
O15   O     O_3   0.533094 0.746657 0.611183 -0.645529
O16   O     O_2   0.409481 0.539766 0.324075 -0.495494
O17   O     O_3   0.412223 0.715995 0.334071 -0.618013
O18   O     O_2   0.045005 0.366199 0.197972 -0.595429
O19   O     O_2   0.360315 0.338681 0.798621 -0.619624
O20   O     O_2   0.831546 0.662307 0.203517 -0.583040
O21   O     O_2   0.143765 0.633621 0.799611 -0.564447
O22   O     O_3   0.686290 0.382320 0.585720 -0.482631
O23   O     O_2   0.786666 0.455225 0.676024 -0.496747
O24   O     O_3   0.041555 0.694104 0.628613 -0.624069
O25   O     O_3   0.772582 0.279400 0.664227 -0.594919
O26   O     O_2   0.844020 0.276410 0.471510 -0.465770
O27   O     O_3   0.101490 0.335510 0.560360 -0.493938
O28   O     O_2   0.013257 0.174290 0.526673 -0.463915
P1    P     P_3+3 0.071960 0.575810 0.612130 0.992360
P2    P     P_3+3 0.664360 0.290070 0.457280 0.982646
P3    P     P_3+3 0.146167 0.218502 0.560097 0.951250
P4    P     P_3+3 0.117760 0.424110 0.387870 0.987634
P5    P     P_3+3 0.048857 0.783187 0.441665 0.948636
P6    P     P_3+3 0.677451 0.385623 0.650154 0.947626
P7    P     P_3+3 0.531309 0.722764 0.545906 0.939990
P8    P     P_3+3 0.513561 0.612106 0.349647 0.937845
N3    N     N_3   0.190104 0.104399 0.432606 -0.498920
H56   H     H_    0.317958 0.086422 0.431410 0.158052
H57   H     H_    0.139861 0.044171 0.422374 0.194726
N4    N     N_3   0.885155 0.832349 0.283243 -0.457983
H58   H     H_    0.875482 0.889087 0.310886 0.206918
H59   H     H_    0.780668 0.800770 0.284640 0.214222
N5    N     N_3   0.530176 0.944416 0.363880 -0.527339
H60   H     H_    0.486630 0.004508 0.349003 0.188244
H61   H     H_    0.509133 0.957948 0.402144 0.174090
N6    N     N_3   0.832831 0.755488 0.131448 -0.423846
H62   H     H_    0.913130 0.802945 0.130369 0.177044
H63   H     H_    0.723087 0.777254 0.112332 0.173418
N7    N     N_3   0.991616 0.731601 0.874341 -0.431266
H64   H     H_    0.863351 0.747610 0.876326 0.173102
H65   H     H_    0.044036 0.785721 0.894345 0.174691

loop_
_geom_bond_atom_site_label_1
_geom_bond_atom_site_label_2
_ccdc_geom_bond_type
C25   C46   A    
C66   H12   S    
C12   H41   S    
N6    H62   S    
O16   P8    D    
N4    H58   S    
C17   C18   A    
C65   H9    S    
C11   H39   S    
O22   P6    S    
Ba2   O4    S    
O17   P8    S    
O4    P4    D    
C4    H20   S    
C12   H31   S    
C46   H40   S    
C51   C52   A    
C54   C55   A    
C50   P2    S    
C21   H44   S    
N6    H63   S    
Ba2   O9    S    
C11   C16   D    
Ba1   O27   S    
O5    P4    S    
Ba2   O14   S    
C35   C36   S    
C61   H48   S    
C36   P6    S    
C65   O2    S    
C34   O7    S    
C28   C29   A    
C51   H49   S    
O6    P8    S    
C31   C47   A    
C64   H6    S    
C10   C20   A    
C22   C37   D    
C12   O3    S    
C44   N6    S    
C34   C45   S    
Ba1   P2    S    
Ba1   Ba2   S    
C33   N2    Am   
C15   H33   S    
N7    H64   S    
C47   N7    S    
C45   N3    S    
C25   C42   A    
C56   C64   S    
C9    N1    Am   
C14   C15   D    
C59   H47   S    
C22   C36   S    
O26   P2    D    
C51   C63   A    
C7    C8    S    
C60   H52   S    
C56   O24   S    
C33   O19   D    
O11   P5    S    
N5    H61   S    
C1    H11   S    
C57   C58   A    
N4    H59   S    
O10   P5    D    
C27   H37   S    
C59   C60   A    
C65   H10   S    
C63   P7    S    
Ba1   O8    S    
C23   H51   S    
C2    H1    S    
C17   C41   A    
C15   C16   S    
N3    H57   S    
C5    H25   S    
C49   P3    S    
C23   H23   S    
Ba2   O8    S    
C62   H46   S    
O25   P6    S    
C37   P1    S    
C65   C66   S    
Ba2   O13   S    
O27   P3    S    
C5    C6    S    
C34   H55   S    
C6    H26   S    
Ba1   O1    S    
Ba1   O5    S    
C50   C62   A    
O2    P2    S    
C37   C38   D    
C35   H35   S    
C38   H42   S    
C55   C60   A    
C9    C18   A    
C6    H27   S    
C4    H19   S    
C58   C59   A    
C19   C43   A    
O23   P6    D    
C10   O20   D    
C34   H54   S    
O24   P1    S    
C45   H2    S    
C27   C28   A    
C39   N2    S    
C52   P5    S    
C29   C30   A    
C10   N1    Am   
C26   C30   A    
C64   H8    S    
C17   C20   A    
C53   C54   A    
Ba2   O6    S    
C18   C19   A    
O28   P3    D    
C8    H32   S    
C7    H28   S    
C45   H3    S    
C3    H18   S    
O1    P1    D    
C38   C39   S    
O9    P5    S    
C2    O25   S    
O14   P7    D    
C14   C21   D    
C1    H22   S    
C41   C42   A    
C29   C33   A    
Ba1   O22   S    
C40   C41   A    
C19   H34   S    
C28   H36   S    
C1    C2    S    
C1    H16   S    
Ba1   O12   S    
C43   H38   S    
C24   C40   A    
C3    O15   S    
N3    H56   S    
C42   C48   A    
O13   P2    S    
C52   C53   A    
N5    H60   S    
C7    H29   S    
C20   C44   A    
C14   P4    S    
Ba2   O12   S    
C24   C26   A    
C13   P8    S    
C49   C62   A    
C55   C63   A    
C50   C61   A    
C7    O17   S    
C4    H21   S    
C8    H30   S    
C44   C48   A    
C57   C61   A    
O7    P4    S    
C54   C57   A    
C66   H13   S    
O8    P7    S    
C66   H14   S    
C30   C31   A    
C11   C13   S    
C3    H17   S    
C5    O11   S    
O15   P7    S    
C32   O21   D    
C56   H4    S    
C3    C4    S    
C2    H15   S    
C9    O18   D    
C32   N2    Am   
C46   C47   A    
C64   H7    S    
C13   C21   S    
C48   H43   S    
Ba2   O5    S    
C31   C32   A    
O12   P1    S    
Ba1   O26   S    
C12   C23   S    
C35   C39   D    
Ba1   P1    S    
N7    H65   S    
C6    N4    S    
O3    P3    S    
C22   H45   S    
Ba2   P4    S    
C24   C27   A    
C8    N5    S    
C5    H24   S    
C25   C26   A    
C49   C58   A    
C23   H53   S    
C40   C43   A    
Ba1   O13   S    
C56   H5    S    
C16   N1    S    
C53   H50   S    
