data_mof_unit_pretest_613.cif
_audit_creation_date              2012-12-11T15:35:52-0500
_audit_creation_method            fapswitch 2.2
_symmetry_space_group_name_H-M    P1
_symmetry_Int_Tables_number       1
_space_group_crystal_system       triclinic
_cell_length_a                    7.029332
_cell_length_b                    12.563737
_cell_length_c                    34.944203
_cell_angle_alpha                 90.09807
_cell_angle_beta                  89.89121
_cell_angle_gamma                 90.281316
_cell_volume                      3086.03882186

loop_
_atom_site_label
_atom_site_type_symbol
_atom_type_description
_atom_site_fract_x
_atom_site_fract_y
_atom_site_fract_z
_atom_type_partial_charge
O1    O     O_R   0.379730 0.148600 0.662710 -0.543108
O2    O     O_R   0.620270 0.851400 0.337290 -0.543676
O3    O     O_R   0.120270 0.648600 0.337290 -0.543723
O4    O     O_R   0.879730 0.351400 0.662710 -0.543211
O5    O     O_R   0.722480 0.134490 0.741330 -0.530376
O6    O     O_R   0.277520 0.865510 0.258670 -0.530467
O7    O     O_R   0.777520 0.634490 0.258670 -0.531145
O8    O     O_R   0.222480 0.365510 0.741330 -0.531070
O9    O     O_R   0.892880 0.345890 0.741600 -0.544918
O10   O     O_R   0.107120 0.654110 0.258400 -0.544869
O11   O     O_R   0.607120 0.845890 0.258400 -0.545837
O12   O     O_R   0.392880 0.154110 0.741600 -0.545877
C1    C     C_R   0.551144 0.109798 0.753539 0.668033
C2    C     C_R   0.448854 0.890197 0.246458 0.667913
C3    C     C_R   0.948580 0.609276 0.246604 0.667476
C4    C     C_R   0.051417 0.390730 0.753394 0.667575
O13   O     O_R   0.709490 0.135560 0.662990 -0.540759
O14   O     O_R   0.290510 0.864440 0.337010 -0.540293
O15   O     O_R   0.790510 0.635560 0.337010 -0.540834
O16   O     O_R   0.209490 0.364440 0.662990 -0.541274
C5    C     C_R   0.539919 0.105185 0.652636 0.685088
C6    C     C_R   0.459948 0.894871 0.347355 0.685490
C7    C     C_R   0.959307 0.605306 0.347419 0.684298
C8    C     C_R   0.040577 0.394638 0.652570 0.683911
O17   O     O_3   0.552800 0.316610 0.702160 -0.370109
O18   O     O_3   0.447200 0.683390 0.297840 -0.370093
O19   O     O_3   0.947200 0.816610 0.297840 -0.370043
O20   O     O_3   0.052800 0.183390 0.702160 -0.370026
V1    V     V_3+5 0.827630 0.234380 0.702160 1.450511
V2    V     V_3+5 0.172370 0.765620 0.297840 1.450216
V3    V     V_3+5 0.672370 0.734380 0.297840 1.449234
V4    V     V_3+5 0.327630 0.265620 0.702160 1.449508
C9    C     C_R   0.980591 0.672573 0.912430 0.542264
C10   C     C_R   0.019393 0.327462 0.087557 0.542271
C11   C     C_R   0.507299 0.167926 0.085975 0.561948
C12   C     C_R   0.492664 0.832036 0.914012 0.561948
O21   O     O_2   0.938990 0.569479 0.918655 -0.515291
O22   O     O_2   0.060989 0.430558 0.081333 -0.515294
O23   O     O_2   0.523369 0.063035 0.079935 -0.528296
O24   O     O_2   0.476561 0.936925 0.920053 -0.528299
N1    N     N_R   0.002746 0.707874 0.875351 -0.534786
N2    N     N_R   0.997251 0.292159 0.124637 -0.534784
N3    N     N_R   0.489927 0.203581 0.123222 -0.535453
N4    N     N_R   0.510057 0.796384 0.876765 -0.535450
C13   C     C_R   0.020552 0.815593 0.868912 0.545310
C14   C     C_R   0.979453 0.184439 0.131075 0.545305
C15   C     C_R   0.479157 0.311229 0.129967 0.545466
C16   C     C_R   0.520842 0.688736 0.870019 0.545462
C17   C     C_R   0.921864 0.646526 0.808266 0.010690
C18   C     C_R   0.078143 0.353498 0.191722 0.010667
C19   C     C_R   0.578464 0.143190 0.189894 -0.002139
C20   C     C_R   0.421556 0.856778 0.810091 -0.002103
C21   C     C_R   0.930670 0.570308 0.778261 -0.063849
C22   C     C_R   0.069322 0.429706 0.221730 -0.063966
C23   C     C_R   0.573181 0.067829 0.220106 -0.060654
C24   C     C_R   0.426847 0.932146 0.779880 -0.060526
C25   C     C_R   0.131071 0.460462 0.818253 -0.173403
C26   C     C_R   0.868924 0.539561 0.181742 -0.173387
C27   C     C_R   0.359896 0.958783 0.182102 -0.177032
C28   C     C_R   0.640072 0.041202 0.817895 -0.177068
C29   C     C_R   0.117560 0.535456 0.847799 -0.072622
C30   C     C_R   0.882439 0.464573 0.152192 -0.072640
C31   C     C_R   0.369654 0.033015 0.152313 -0.058972
C32   C     C_R   0.630315 0.966961 0.847681 -0.058979
C33   C     C_R   0.013826 0.630375 0.843689 0.283686
C34   C     C_R   0.986179 0.369655 0.156300 0.283721
C35   C     C_R   0.479520 0.126849 0.155171 0.275261
C36   C     C_R   0.520471 0.873120 0.844817 0.275232
C37   C     C_R   0.998270 0.853681 0.937364 -0.040714
C38   C     C_R   0.001709 0.146355 0.062622 -0.040725
C39   C     C_R   0.489161 0.349715 0.061418 -0.048719
C40   C     C_R   0.510826 0.650246 0.938568 -0.048701
C41   C     C_R   0.988102 0.743852 0.944137 -0.132762
C42   C     C_R   0.011875 0.256185 0.055850 -0.132750
C43   C     C_R   0.507093 0.239736 0.054064 -0.133521
C44   C     C_R   0.492882 0.760225 0.945923 -0.133545
C45   C     C_R   0.993248 0.709450 0.982566 0.007271
C46   C     C_R   0.006723 0.290587 0.017420 0.007286
C47   C     C_R   0.520665 0.207579 0.014955 0.008251
C48   C     C_R   0.479310 0.792381 0.985031 0.008231
C49   C     C_R   0.025783 0.888985 0.899645 -0.016623
C50   C     C_R   0.974208 0.111049 0.100342 -0.016645
C51   C     C_R   0.477300 0.384943 0.099565 0.000721
C52   C     C_R   0.522696 0.615021 0.900421 0.000752
C53   C     C_R   0.036858 0.475450 0.783395 -0.123376
C54   C     C_R   0.963134 0.524563 0.216599 -0.123397
C55   C     C_R   0.462836 0.973557 0.216029 -0.127593
C56   C     C_R   0.537159 0.026429 0.783965 -0.127556
H1    H     H_    0.187839 0.518242 0.874337 0.144827
H2    H     H_    0.812154 0.481792 0.125656 0.144829
H3    H     H_    0.290509 0.015910 0.126749 0.170688
H4    H     H_    0.709443 0.984066 0.873247 0.170691
C57   C     C_R   0.967543 0.963368 0.038150 0.084954
C58   C     C_R   0.032435 0.036668 0.961836 0.084977
C59   C     C_R   0.503492 0.464317 0.961274 0.095344
C60   C     C_R   0.496495 0.535644 0.038712 0.095315
C61   C     C_R   0.034698 0.109019 0.993413 -0.008335
C62   C     C_R   0.965271 0.891018 0.006573 -0.008338
C63   C     C_R   0.511759 0.609774 0.007796 -0.009886
C64   C     C_R   0.488231 0.390187 0.992190 -0.009891
C65   C     C_R   0.006027 0.072292 0.031432 0.060795
C66   C     C_R   0.993947 0.927745 0.968554 0.060819
C67   C     C_R   0.510625 0.574578 0.969296 0.059093
C68   C     C_R   0.489363 0.425383 0.030690 0.059060
C69   C     C_R   0.927037 0.931484 0.076251 -0.094899
C70   C     C_R   0.072946 0.068552 0.923736 -0.094942
C71   C     C_R   0.524505 0.432189 0.922588 -0.099164
C72   C     C_R   0.475485 0.567774 0.077397 -0.099114
C73   C     C_R   0.934024 0.003308 0.106604 -0.122666
C74   C     C_R   0.065963 0.996727 0.893382 -0.122633
C75   C     C_R   0.538578 0.505934 0.893135 -0.110717
C76   C     C_R   0.461420 0.494029 0.106851 -0.110727
O25   O     O_2   0.967866 0.146763 0.167027 -0.549532
O26   O     O_2   0.032164 0.853265 0.832960 -0.549534
O27   O     O_2   0.530809 0.651494 0.833923 -0.550394
O28   O     O_2   0.469207 0.348473 0.166063 -0.550392
C77   C     C_R   0.961220 0.781148 0.012421 -0.146786
C78   C     C_R   0.038739 0.218888 0.987565 -0.146808
C79   C     C_R   0.486137 0.280741 0.985732 -0.136108
C80   C     C_R   0.513856 0.719219 0.014254 -0.136080
H5    H     H_    0.161227 0.282324 0.195885 0.209639
H6    H     H_    0.838780 0.717700 0.804102 0.209621
H7    H     H_    0.336093 0.785767 0.806575 0.209934
H8    H     H_    0.663935 0.214199 0.193406 0.209946
H9    H     H_    0.903439 0.974090 0.135129 0.153514
H10   H     H_    0.096551 0.025945 0.864858 0.153509
H11   H     H_    0.555612 0.476312 0.864193 0.151818
H12   H     H_    0.444388 0.523652 0.135792 0.151827
H13   H     H_    0.883379 0.851945 0.083748 0.103269
H14   H     H_    0.116605 0.148091 0.916239 0.103257
H15   H     H_    0.536036 0.350471 0.913713 0.111464
H16   H     H_    0.463952 0.649491 0.086273 0.111480
H17   H     H_    0.958860 0.749246 0.040925 0.164605
H18   H     H_    0.041088 0.250789 0.959061 0.164607
H19   H     H_    0.469791 0.249734 0.957263 0.159952
H20   H     H_    0.530212 0.750227 0.042723 0.159946
C81   C     C_R   0.963668 0.527612 0.377865 -0.037216
C82   C     C_R   0.033908 0.471996 0.622050 -0.035687
C83   C     C_R   0.531713 0.027787 0.622057 -0.035831
C84   C     C_R   0.465554 0.972634 0.377855 -0.037652
C85   C     C_R   0.874166 0.356129 0.402953 -0.161632
C86   C     C_R   0.095868 0.647596 0.597418 -0.160192
C87   C     C_R   0.587614 0.851758 0.597330 -0.160869
C88   C     C_R   0.378556 0.144119 0.403077 -0.162294
C89   C     C_R   0.896399 0.424241 0.371928 -0.165151
C90   C     C_R   0.087100 0.577730 0.628218 -0.167772
C91   C     C_R   0.580804 0.921757 0.628188 -0.169242
C92   C     C_R   0.400540 0.076066 0.371978 -0.166494
C93   C     C_R   0.008396 0.563436 0.414375 -0.213769
C94   C     C_R   0.989550 0.435518 0.585618 -0.211073
C95   C     C_R   0.489253 0.064408 0.585638 -0.210626
C96   C     C_R   0.508333 0.936696 0.414361 -0.213718
C97   C     C_R   0.974562 0.499048 0.446543 0.079705
C98   C     C_R   0.001752 0.503362 0.553795 0.079738
C99   C     C_R   0.498943 0.996347 0.553795 0.080010
C100  C     C_R   0.474290 0.000941 0.446573 0.079916
C101  C     C_R   0.910012 0.393093 0.440187 0.125113
C102  C     C_R   0.056516 0.610944 0.560269 0.124267
C103  C     C_R   0.550101 0.888530 0.560189 0.123855
C104  C     C_R   0.412178 0.106984 0.440303 0.124951
C105  C     C_R   0.998783 0.537392 0.484613 0.055702
C106  C     C_R   0.968187 0.466553 0.515828 0.055326
C107  C     C_R   0.466613 0.033216 0.515874 0.055379
C108  C     C_R   0.496104 0.962369 0.484597 0.055907
C109  C     C_R   0.904859 0.361423 0.508063 -0.196023
C110  C     C_R   0.048320 0.644709 0.492529 -0.195168
C111  C     C_R   0.542014 0.854817 0.492404 -0.195677
C112  C     C_R   0.405337 0.138377 0.508223 -0.196222
C113  C     C_R   0.876559 0.325844 0.470983 -0.203793
C114  C     C_R   0.075504 0.680464 0.529637 -0.201291
C115  C     C_R   0.567350 0.818910 0.529487 -0.202128
C116  C     C_R   0.378813 0.174111 0.471170 -0.204105
H21   H     H_    0.826038 0.245097 0.466424 0.141433
H22   H     H_    0.114919 0.763044 0.534316 0.141512
H23   H     H_    0.603984 0.736150 0.534093 0.141142
H24   H     H_    0.329835 0.254872 0.466685 0.141257
H25   H     H_    0.956020 0.352089 0.583134 0.099554
H26   H     H_    0.061419 0.643756 0.416537 0.102529
H27   H     H_    0.560039 0.856397 0.416482 0.102580
H28   H     H_    0.459322 0.148082 0.583170 0.099260
H29   H     H_    0.123477 0.605522 0.656660 0.131404
H30   H     H_    0.858868 0.397130 0.343461 0.131764
H31   H     H_    0.364452 0.103246 0.343501 0.133236
H32   H     H_    0.615554 0.893842 0.656639 0.132692
H33   H     H_    0.822538 0.275822 0.398012 0.133119
H34   H     H_    0.138220 0.729516 0.602455 0.133244
H35   H     H_    0.626950 0.769620 0.602320 0.133568
H36   H     H_    0.328739 0.224483 0.398191 0.133500
H37   H     H_    0.871040 0.304317 0.529966 0.128798
H38   H     H_    0.065564 0.704479 0.470789 0.128342
H39   H     H_    0.557382 0.794971 0.470589 0.128318
H40   H     H_    0.371498 0.195290 0.530202 0.128856
H41   H     H_    0.212814 0.388810 0.823015 0.116271
H42   H     H_    0.787180 0.611213 0.176982 0.116288
H43   H     H_    0.273284 0.887979 0.178292 0.123007
H44   H     H_    0.726662 0.112012 0.821710 0.122989
C117  C     C_2   0.079406 0.607819 0.993274 0.408444
H45   H     H_    0.139096 0.555818 0.971885 0.120780
O29   O     O_2   0.099651 0.584290 0.026867 -0.531737
C118  C     C_2   0.920583 0.392223 0.006714 0.408426
H46   H     H_    0.860896 0.444226 0.028103 0.120785
O30   O     O_2   0.900346 0.415756 0.973121 -0.531740
C119  C     C_2   0.595431 0.104254 0.001912 0.361159
H47   H     H_    0.641140 0.044554 0.021380 0.145503
O31   O     O_2   0.619916 0.086038 0.967915 -0.531486
C120  C     C_2   0.404527 0.895700 0.998076 0.361184
H48   H     H_    0.358811 0.955402 0.978609 0.145505
O32   O     O_2   0.380038 0.913912 0.032074 -0.531478
C121  C     C_2   0.167199 0.407569 0.258500 0.451579
H49   H     H_    0.150403 0.460417 0.282809 0.017969
O33   O     O_2   0.267642 0.329226 0.262242 -0.514116
C122  C     C_2   0.832762 0.592427 0.741493 0.451373
H50   H     H_    0.849410 0.539523 0.717196 0.017927
O34   O     O_2   0.732453 0.670820 0.737739 -0.514015
C123  C     C_2   0.321562 0.909385 0.743920 0.453555
H51   H     H_    0.336582 0.960987 0.719263 0.020160
O35   O     O_2   0.216885 0.831848 0.741239 -0.512557
C124  C     C_2   0.678510 0.090589 0.256060 0.453717
H52   H     H_    0.663414 0.039027 0.280727 0.020288
O36   O     O_2   0.783311 0.168078 0.258726 -0.512633

loop_
_geom_bond_atom_site_label_1
_geom_bond_atom_site_label_2
_ccdc_geom_bond_type
C91   H32   S    
C26   C30   A    
C48   C120  S    
C39   C68   A    
C48   C80   A    
O1    C5    A    
O13   V1    S    
C86   C90   A    
O3    C7    A    
C107  C108  A    
C10   N2    A    
C88   C92   A    
C77   H17   S    
C49   C74   A    
C84   C92   A    
C105  C106  A    
C28   C56   A    
C38   C65   A    
C28   H44   S    
C37   C66   A    
C82   C94   A    
C87   C91   A    
C116  H24   S    
C119  O31   D    
C83   C91   A    
C18   C22   A    
C17   C33   A    
C32   C36   A    
C81   C89   A    
O20   V1    S    
C46   C78   A    
O9    C4    A    
C2    C55   S    
C98   C102  A    
C45   C77   A    
O10   C3    A    
C123  O35   D    
C114  H22   S    
O4    C8    A    
C20   H7    S    
C120  O32   D    
C24   C56   A    
C90   H29   S    
C60   C63   A    
C6    C84   S    
C64   C68   A    
N2    C14   A    
C61   C78   A    
C117  O29   D    
C93   C97   A    
C24   C123  S    
C12   C44   A    
C101  C113  A    
C63   C80   A    
C14   C50   A    
C13   O26   S    
C22   C121  S    
C113  H21   S    
C96   C100  A    
C76   H12   S    
C59   C67   A    
C118  H46   S    
C120  H48   S    
C47   C79   A    
O2    C6    A    
C109  H37   S    
C23   C55   A    
C37   C41   A    
O14   V2    S    
C15   C51   A    
C88   C104  A    
C11   N3    A    
C84   C96   A    
O5    C1    A    
O4    V1    S    
C20   C36   A    
C12   N4    A    
C85   C89   A    
C32   H4    S    
C57   C69   A    
O17   V4    S    
O7    C3    A    
C60   C72   A    
O15   V3    S    
O18   V3    S    
O8    C4    A    
C10   O22   S    
O12   V4    S    
O19   V2    S    
C109  C113  A    
C19   H8    S    
C81   C93   A    
C18   H5    S    
C46   C118  S    
C86   C102  A    
O16   V4    S    
C26   C54   A    
C79   H19   S    
C29   H1    S    
C23   C124  S    
O5    V1    S    
O17   V1    S    
C15   O28   S    
C86   H34   S    
C31   C35   A    
C52   C75   A    
O7    V3    S    
C30   C34   A    
C99   C103  A    
O8    V4    S    
C50   C73   A    
O16   C8    A    
C100  C104  A    
C37   C49   A    
C71   H15   S    
C63   C67   A    
C103  C115  A    
C57   C65   A    
C22   C54   A    
C59   C64   A    
C102  C114  A    
N1    C33   S    
C58   C61   A    
C8    C82   S    
C62   C66   A    
O19   V3    S    
C89   H30   S    
C26   H42   S    
O1    V4    S    
C9    O21   S    
C72   C76   A    
C97   C105  A    
O2    V3    S    
C80   H20   S    
O3    V2    S    
C11   O23   S    
C123  H51   S    
N3    C35   S    
C38   C42   A    
C121  O33   D    
C29   C33   A    
O6    C2    A    
C106  C109  A    
C71   C75   A    
O10   V2    S    
C61   C65   A    
C124  O36   D    
O20   V4    S    
C45   C117  S    
C11   C43   A    
C88   H36   S    
C121  H49   S    
C104  C116  A    
C40   C44   A    
C64   C79   A    
C19   C35   A    
O12   C1    A    
C25   C29   A    
C18   C34   A    
C100  C108  A    
C40   C52   A    
C59   C71   A    
C10   C42   A    
C3    C54   S    
C85   C101  A    
C9    C41   A    
O6    V2    S    
C74   H10   S    
O18   V2    S    
C95   C99   A    
C16   O27   S    
C75   H11   S    
C4    C53   S    
N4    C36   S    
C85   H33   S    
C5    C83   S    
C98   C106  A    
C12   O24   S    
O15   C7    A    
C62   C77   A    
C70   C74   A    
C73   H9    S    
C70   H14   S    
C69   C73   A    
C58   C70   A    
N1    C13   A    
C14   O25   S    
O14   C6    A    
C87   H35   S    
C7    C81   S    
C108  C111  A    
C13   C49   A    
C44   C48   A    
C122  O34   D    
N3    C15   A    
C78   H18   S    
C69   H13   S    
C87   C103  A    
C95   H28   S    
C40   C67   A    
O9    V1    S    
C111  H39   S    
C42   C46   A    
C27   C31   A    
C112  H40   S    
C111  C115  A    
C28   C32   A    
C47   C119  S    
C99   C107  A    
C96   H27   S    
C60   C68   A    
C107  C112  A    
C9    N1    A    
N4    C16   A    
C25   H41   S    
C39   C43   A    
C124  H52   S    
C115  H23   S    
C82   C90   A    
C92   H31   S    
C17   C21   A    
C17   H6    S    
C30   H2    S    
C1    C56   S    
C83   C95   A    
C93   H26   S    
O11   C2    A    
C110  C114  A    
C25   C53   A    
C19   C23   A    
C97   C101  A    
C117  H45   S    
C38   C50   A    
C27   C55   A    
C72   H16   S    
C27   H43   S    
C21   C53   A    
C105  C110  A    
O11   V3    S    
C16   C52   A    
C112  C116  A    
C122  H50   S    
C58   C66   A    
C118  O30   D    
C94   C98   A    
C31   H3    S    
N2    C34   S    
C41   C45   A    
C51   C76   A    
C39   C51   A    
C119  H47   S    
C110  H38   S    
C43   C47   A    
C57   C62   A    
C21   C122  S    
C20   C24   A    
C94   H25   S    
O13   C5    A    
