data_mof_unit_pretest_1246.cif
_audit_creation_date              2012-12-10T19:05:49-0500
_audit_creation_method            fapswitch 2.2
_symmetry_space_group_name_H-M    P1
_symmetry_Int_Tables_number       1
_space_group_crystal_system       triclinic
_cell_length_a                    19.478062
_cell_length_b                    10.813445
_cell_length_c                    9.578096
_cell_angle_alpha                 89.767721
_cell_angle_beta                  90.585317
_cell_angle_gamma                 90.910986
_cell_volume                      2017.01048606

loop_
_atom_site_label
_atom_site_type_symbol
_atom_type_description
_atom_site_fract_x
_atom_site_fract_y
_atom_site_fract_z
_atom_type_partial_charge
C1    C     C_R   0.498739 0.262658 0.500692 0.872783
C2    C     C_R   0.290022 0.500211 0.497733 -0.198816
C3    C     C_R   0.929612 0.499025 0.495356 0.413643
C4    C     C_R   0.068693 0.506749 0.494043 0.510253
C5    C     C_R   0.819609 0.496846 0.623217 -0.219365
C6    C     C_R   0.747925 0.492071 0.626824 0.217578
C7    C     C_R   0.709211 0.486547 0.500201 -0.091020
C8    C     C_R   0.745349 0.474978 0.372330 0.216421
C9    C     C_R   0.817112 0.483015 0.372040 -0.223335
C10   C     C_R   0.854329 0.494395 0.496635 -0.000974
C11   C     C_R   0.534674 0.063742 0.596157 -0.005415
C12   C     C_R   0.367063 0.499583 0.499387 0.862697
C13   C     C_R   0.492840 0.129410 0.504586 -0.139737
C14   C     C_R   0.442596 0.065141 0.424791 0.206542
C15   C     C_R   0.445792 0.934369 0.416007 0.156692
C16   C     C_R   0.494594 0.870873 0.499216 -0.140021
C17   C     C_R   0.535160 0.936570 0.594380 -0.019940
C18   C     C_3   0.611226 0.931779 0.617380 -0.492534
C19   C     C_3   0.610624 0.072323 0.621812 0.240780
C20   C     C_R   0.520069 0.602671 0.073432 0.175747
C21   C     C_R   0.470652 0.404735 0.073290 0.328712
C22   C     C_R   0.472391 0.403094 0.924132 0.461513
C23   C     C_R   0.498832 0.737449 0.499402 0.845908
C24   C     C_R   0.518515 0.603856 0.926870 0.166890
C25   C     C_3   0.584657 0.674245 0.920918 -0.483991
C26   C     C_3   0.587755 0.668407 0.079257 -0.476193
C27   C     C_R   0.632671 0.495272 0.500397 0.808852
C28   C     C_R   0.253164 0.516151 0.623583 0.144086
C29   C     C_R   0.181268 0.529154 0.619591 0.142654
C30   C     C_R   0.144674 0.509342 0.493808 -0.095882
C31   C     C_R   0.179939 0.485857 0.369485 0.330633
C32   C     C_R   0.252740 0.487197 0.369921 0.095332
Cu1   Cu    Cu3+1 0.500000 0.499980 0.640670 0.993816
Cu2   Cu    Cu3+1 0.500000 0.500020 0.359330 0.975993
H1    H     H_    0.625669 0.890578 0.719305 0.168874
H2    H     H_    0.638562 0.892561 0.526653 0.194135
H3    H     H_    0.624104 0.111094 0.725908 0.133138
H4    H     H_    0.625791 0.622764 0.869623 0.238201
H5    H     H_    0.576771 0.769420 0.881366 0.195486
H6    H     H_    0.629364 0.608927 0.119426 0.231642
H7    H     H_    0.585424 0.760744 0.128978 0.187823
H8    H     H_    0.848290 0.502657 0.720606 0.160143
H9    H     H_    0.844001 0.475607 0.273984 0.159489
N1    N     N_R   0.032066 0.548681 0.382682 -0.167323
N2    N     N_R   0.963772 0.544463 0.383068 -0.238677
N3    N     N_R   0.966128 0.457410 0.606743 -0.235829
N4    N     N_R   0.034328 0.460636 0.605740 -0.204795
N5    N     N_R   0.500440 0.500930 0.147930 -0.232572
N6    N     N_R   0.500440 0.500890 0.852020 -0.218603
O1    O     O_R   0.500000 0.319640 0.618810 -0.533266
O2    O     O_R   0.500010 0.319680 0.381230 -0.550549
O3    O     O_R   0.400140 0.499970 0.618830 -0.529784
O4    O     O_R   0.400150 0.500010 0.381250 -0.565528
O5    O     O_R   0.499990 0.680320 0.618770 -0.583561
O6    O     O_R   0.500000 0.680360 0.381190 -0.566138
O7    O     O_R   0.599850 0.499990 0.618750 -0.557005
O8    O     O_R   0.599860 0.500030 0.381170 -0.556321
N7    N     N_2   0.288301 0.519203 0.754726 -0.401657
H10   H     H_    0.274473 0.589983 0.819940 0.245493
C33   C     C_3   0.291044 0.400156 0.824199 -0.621831
H11   H     H_    0.238835 0.366941 0.852838 0.196321
H12   H     H_    0.322475 0.408216 0.920903 0.230095
H13   H     H_    0.314653 0.330765 0.755175 0.254541
N8    N     N_2   0.400836 0.866863 0.325013 -0.429763
H14   H     H_    0.349923 0.890240 0.333000 0.245056
C34   C     C_3   0.423713 0.862127 0.181670 -0.652948
H15   H     H_    0.418829 0.953363 0.129592 0.210724
H16   H     H_    0.392364 0.793406 0.122579 0.215565
H17   H     H_    0.478107 0.834796 0.177416 0.243244
O9    O     O_3   0.647267 0.129062 0.512359 -0.747961
H18   H     H_    0.632191 0.090757 0.422802 0.327640
O10   O     O_3   0.437534 0.308774 0.139588 -0.749672
H19   H     H_    0.409767 0.345566 0.213434 0.385891
O11   O     O_3   0.443726 0.305985 0.849740 -0.713233
H20   H     H_    0.429118 0.238400 0.913234 0.336882
N9    N     N_2   0.145109 0.563337 0.742147 -0.403693
H21   H     H_    0.162135 0.525272 0.834627 0.265472
C35   C     C_3   0.132075 0.694233 0.752757 -0.661280
H22   H     H_    0.181254 0.747038 0.763277 0.208370
H23   H     H_    0.100350 0.711582 0.846109 0.239988
H24   H     H_    0.103572 0.727290 0.659086 0.236413
O12   O     O_3   0.141380 0.462525 0.249850 -0.712853
H25   H     H_    0.170421 0.431251 0.174408 0.327927
N10   N     N_2   0.288818 0.476822 0.242048 -0.414567
H26   H     H_    0.279613 0.396808 0.186328 0.234373
C36   C     C_3   0.291421 0.588463 0.158463 -0.645436
H27   H     H_    0.241814 0.602129 0.102843 0.219789
H28   H     H_    0.332893 0.581244 0.080510 0.210280
H29   H     H_    0.302808 0.670042 0.225395 0.244547
N11   N     N_2   0.715710 0.491616 0.759186 -0.433351
H30   H     H_    0.741544 0.543187 0.834058 0.235989
C37   C     C_3   0.697056 0.369765 0.810118 -0.631527
H31   H     H_    0.743715 0.319036 0.843043 0.217427
H32   H     H_    0.669151 0.316134 0.728341 0.256760
H33   H     H_    0.662470 0.379082 0.900425 0.210707
N12   N     N_2   0.710573 0.451081 0.243526 -0.430185
H34   H     H_    0.735544 0.485847 0.156957 0.236739
C38   C     C_3   0.689499 0.323245 0.224974 -0.606893
H35   H     H_    0.735209 0.263771 0.215377 0.217522
H36   H     H_    0.657387 0.314211 0.129339 0.204919
H37   H     H_    0.658002 0.291017 0.314002 0.262539
N13   N     N_2   0.389304 0.131982 0.356573 -0.406677
H38   H     H_    0.371008 0.095030 0.264464 0.274509
C39   C     C_3   0.334462 0.168067 0.447784 -0.724042
H39   H     H_    0.296963 0.224377 0.388325 0.227799
H40   H     H_    0.354923 0.224530 0.535812 0.231625
H41   H     H_    0.307490 0.084746 0.489673 0.223138

loop_
_geom_bond_atom_site_label_1
_geom_bond_atom_site_label_2
_ccdc_geom_bond_type
C34   H16   S    
C5    H8    S    
C18   H2    S    
C8    N12   S    
C2    C12   S    
C39   H40   S    
C7    C8    A    
C29   N9    S    
Cu1   O1    S    
Cu1   O3    S    
C11   C19   S    
Cu2   O2    S    
C31   O12   S    
C33   H13   S    
C2    C32   A    
C28   C29   A    
N9    C35   S    
C5    C6    A    
C35   H23   S    
C14   N13   S    
C34   H17   S    
Cu1   N6    S    
C15   C16   A    
Cu1   O5    S    
C7    C27   S    
C33   H12   S    
C18   C19   S    
C19   H3    S    
N10   H26   S    
C20   C24   A    
C8    C9    A    
N12   C38   S    
Cu2   O8    S    
C15   N8    S    
O9    H18   S    
C18   H1    S    
C12   O4    A    
C21   N5    A    
Cu1   O7    S    
C34   H15   S    
Cu2   O6    S    
C21   C22   A    
C39   H39   S    
C12   O3    A    
Cu1   Cu2   S    
C32   N10   S    
C9    H9    S    
O11   H20   S    
C21   O10   S    
C24   C25   S    
C27   O8    A    
C27   O7    A    
C16   C17   A    
C4    N1    A    
C25   C26   S    
C6    N11   S    
C3    N2    A    
C37   H33   S    
C33   H11   S    
N8    C34   S    
C29   C30   A    
C1    O1    A    
C25   H4    S    
N11   C37   S    
C31   C32   A    
N12   H34   S    
C37   H32   S    
C17   C18   S    
N9    H21   S    
N13   C39   S    
C1    O2    A    
C20   N5    A    
C22   N6    A    
O12   H25   S    
C16   C23   S    
C38   H36   S    
Cu2   N5    S    
C22   O11   S    
N1    N2    A    
C36   H27   S    
C23   O5    A    
C9    C10   A    
C24   N6    A    
N3    N4    A    
C11   C17   A    
C35   H22   S    
N10   C36   S    
O10   H19   S    
C36   H29   S    
C23   O6    A    
C6    C7    A    
C28   N7    S    
C38   H37   S    
C3    N3    A    
N8    H14   S    
N7    H10   S    
C5    C10   A    
C3    C10   S    
C25   H5    S    
C11   C13   A    
C35   H24   S    
C26   H6    S    
N11   H30   S    
C30   C31   A    
C20   C26   S    
C37   H31   S    
C36   H28   S    
N13   H38   S    
C1    C13   S    
Cu2   O4    S    
C38   H35   S    
C14   C15   A    
C19   O9    S    
C2    C28   A    
C13   C14   A    
N7    C33   S    
C39   H41   S    
C4    C30   S    
C26   H7    S    
C4    N4    A    
