data_mof_unit_pretest_1308.cif
_audit_creation_date              2013-03-05T16:12:14-0500
_audit_creation_method            fapswitch 2.2
_symmetry_space_group_name_H-M    P1
_symmetry_Int_Tables_number       1
_space_group_crystal_system       triclinic
_cell_length_a                    10.69623
_cell_length_b                    9.561192
_cell_length_c                    27.747118
_cell_angle_alpha                 89.072058
_cell_angle_beta                  89.97829
_cell_angle_gamma                 90.226632
_cell_volume                      2837.26730435

loop_
_atom_site_label
_atom_site_type_symbol
_atom_site_description
_atom_site_fract_x
_atom_site_fract_y
_atom_site_fract_z
_atom_type_partial_charge
O1    O     O_R   0.317570 0.620260 0.500030 -0.603859
O2    O     O_R   0.317570 0.379740 0.500030 -0.597261
C1    C     C_R   0.260295 0.499968 0.503523 0.725424
O3    O     O_R   0.499900 0.620250 0.430280 -0.497548
O4    O     O_R   0.499900 0.379750 0.430280 -0.522506
C2    C     C_R   0.503307 0.500429 0.407897 0.840202
Cu1   Cu    Cu3+1 0.499860 0.642410 0.500020 0.951802
Cu2   Cu    Cu3+1 0.499860 0.357590 0.500020 0.945475
O5    O     O_R   0.682190 0.620260 0.500010 -0.592672
O6    O     O_R   0.682190 0.379740 0.500010 -0.601537
O7    O     O_R   0.499860 0.620280 0.569750 -0.598850
O8    O     O_R   0.499860 0.379720 0.569750 -0.597271
C3    C     C_R   0.738650 0.499883 0.504932 0.753023
C4    C     C_R   0.499300 0.499007 0.592413 0.798883
C5    C     C_R   0.462926 0.384391 0.180808 0.590048
O9    O     O_2   0.404915 0.284987 0.207722 -0.499031
N1    N     N_R   0.536032 0.480560 0.203341 -0.453916
C6    C     C_R   0.605155 0.576443 0.177919 0.578026
C7    C     C_R   0.630310 0.432113 0.283380 0.504877
C8    C     C_R   0.619061 0.436023 0.334041 -0.266748
C9    C     C_R   0.418817 0.550541 0.326596 -0.278334
C10   C     C_R   0.427520 0.546295 0.276757 -0.171466
C11   C     C_R   0.532403 0.487541 0.254960 0.284714
C12   C     C_R   0.530891 0.477780 0.103058 -0.114121
C13   C     C_R   0.449971 0.388267 0.130068 -0.079969
C14   C     C_R   0.362292 0.303927 0.105341 -0.003399
C15   C     C_R   0.613378 0.569156 0.127344 -0.102424
C16   C     C_R   0.515392 0.499485 0.355435 -0.053262
H1    H     H_    0.334257 0.587568 0.342703 0.153388
H2    H     H_    0.351119 0.585637 0.254875 0.161555
C17   C     C_R   0.499587 0.497048 0.645542 -0.079755
C18   C     C_R   0.429386 0.404666 0.976393 0.048829
C19   C     C_R   0.618205 0.552604 0.974248 0.070935
C20   C     C_R   0.522106 0.479655 0.949988 0.073261
C21   C     C_R   0.329298 0.343979 0.950569 -0.206293
C22   C     C_R   0.324149 0.351560 0.900518 -0.142558
C23   C     C_R   0.418870 0.418800 0.874202 -0.024568
C24   C     C_R   0.518588 0.482166 0.898814 -0.050913
C25   C     C_R   0.614850 0.548056 0.872186 -0.029027
C26   C     C_R   0.610141 0.548290 0.821645 0.592648
N2    N     N_R   0.510294 0.490018 0.798428 -0.446209
C27   C     C_R   0.415543 0.425699 0.823622 0.547286
C28   C     C_R   0.514854 0.369542 0.721327 -0.194072
C29   C     C_R   0.512545 0.370577 0.671236 -0.229533
C30   C     C_R   0.487636 0.622445 0.670824 -0.357393
C31   C     C_R   0.493703 0.623586 0.721752 0.524286
C32   C     C_R   0.505755 0.494606 0.746648 0.296260
O10   O     O_2   0.318129 0.369241 0.799801 -0.541983
C33   C     C_R   0.438842 0.394694 0.027502 0.043391
C34   C     C_R   0.528575 0.477121 0.051853 0.076888
C35   C     C_R   0.614756 0.560752 0.025271 -0.016813
C36   C     C_R   0.360210 0.305932 0.055062 -0.262418
H3    H     H_    0.521165 0.272296 0.652694 0.160089
H4    H     H_    0.524447 0.271090 0.740767 0.153038
H5    H     H_    0.245284 0.303895 0.882501 0.187115
H6    H     H_    0.250854 0.293468 0.968005 0.142392
H7    H     H_    0.294513 0.236370 0.038205 0.160650
O11   O     O_2   0.662442 0.680676 0.201616 -0.499740
C37   C     C_R   0.699584 0.652356 0.100849 0.506537
H8    H     H_    0.687853 0.386225 0.357048 0.178690
C38   C     C_R   0.715946 0.613412 0.946517 -0.206211
C39   C     C_R   0.714166 0.610847 0.896470 -0.148302
O12   O     O_2   0.704906 0.605540 0.795874 -0.559393
C40   C     C_R   0.694039 0.652189 0.050350 -0.314488
H9    H     H_    0.797499 0.660175 0.962592 0.140589
H10   H     H_    0.473718 0.717714 0.650307 0.151337
H11   H     H_    0.790961 0.659314 0.876866 0.185878
H12   H     H_    0.748580 0.729101 0.031011 0.146593
C41   C     C_3   0.072845 0.614204 0.541879 -0.374150
C42   C     C_3   0.070394 0.356631 0.524976 -0.366954
H13   H     H_    0.113539 0.718657 0.532796 0.167643
H14   H     H_    0.091886 0.274178 0.498491 0.160589
H15   H     H_    0.101189 0.587320 0.579472 0.162161
H16   H     H_    0.115325 0.325938 0.559720 0.157309
C43   C     C_3   0.928107 0.622822 0.538462 -0.383701
C44   C     C_3   0.927776 0.363571 0.531872 -0.382208
H17   H     H_    0.886991 0.618742 0.575307 0.147680
H18   H     H_    0.905249 0.362460 0.571054 0.162408
H19   H     H_    0.901618 0.724773 0.521995 0.216250
H20   H     H_    0.884897 0.268140 0.517362 0.160669
H21   H     H_    0.085645 0.648035 0.447947 0.187357
H22   H     H_    0.112581 0.473386 0.428644 0.153858
H23   H     H_    0.881450 0.600923 0.435787 0.177302
H24   H     H_    0.905630 0.416494 0.435581 0.201992
C45   C     C_3   0.067948 0.536282 0.456540 -0.428868
C46   C     C_3   0.121517 0.500946 0.506877 0.168974
C47   C     C_3   0.876749 0.499929 0.507815 0.170142
C48   C     C_3   0.926814 0.513062 0.455707 -0.368270
C49   C     C_3   0.622860 0.085805 0.484103 -0.192873
C50   C     C_3   0.628579 0.920667 0.490734 -0.057321
H25   H     H_    0.696281 0.126387 0.508578 0.095990
H26   H     H_    0.686181 0.900609 0.523676 0.091157
H27   H     H_    0.558695 0.108744 0.574334 0.172084
H28   H     H_    0.524056 0.870155 0.577964 0.193178
C51   C     C_3   0.479501 0.081211 0.550230 -0.348520
C52   C     C_3   0.464468 0.915314 0.548939 -0.385262
C53   C     C_3   0.393948 0.083068 0.471321 0.460010
C54   C     C_3   0.409217 0.917233 0.465251 0.436519
N3    N     N_3   0.500250 0.143650 0.501060 -0.186302
N4    N     N_3   0.500250 0.856350 0.501060 -0.189131
H29   H     H_    0.305540 0.097565 0.492294 -0.027123
H30   H     H_    0.317975 0.868305 0.473663 0.024921
H31   H     H_    0.394864 0.127342 0.566906 0.172056
H32   H     H_    0.366535 0.885242 0.558046 0.153086
O13   O     O_3   0.723489 0.356105 0.260836 -0.589141
C55   C     C_3   0.845334 0.397822 0.274879 0.038157
H33   H     H_    0.910095 0.314373 0.263215 0.201941
H34   H     H_    0.857804 0.405493 0.314451 0.133505
C56   C     C_3   0.883763 0.535123 0.249690 -0.318071
H35   H     H_    0.858471 0.529756 0.211069 0.257347
H36   H     H_    0.832882 0.623292 0.266256 0.250279
C57   C     C_3   0.023885 0.562619 0.253461 -0.923548
H37   H     H_    0.051979 0.567302 0.291816 0.258342
H38   H     H_    0.046996 0.664238 0.235600 0.271662
H39   H     H_    0.077237 0.478900 0.235396 0.286814
O14   O     O_3   0.783780 0.737264 0.125512 -0.559154
C58   C     C_3   0.906553 0.739811 0.105846 0.072539
H40   H     H_    0.964541 0.804569 0.130175 0.184751
H41   H     H_    0.910060 0.795091 0.070410 0.128476
C59   C     C_3   0.967366 0.594168 0.103483 -0.407880
H42   H     H_    0.962976 0.541833 0.139371 0.243704
H43   H     H_    0.917082 0.527738 0.077297 0.216177
C60   C     C_3   0.104036 0.605087 0.087936 -0.836114
H44   H     H_    0.111427 0.657006 0.051927 0.251667
H45   H     H_    0.144488 0.498696 0.085651 0.264424
H46   H     H_    0.158797 0.665585 0.114559 0.261823
O15   O     O_3   0.481920 0.743723 0.749494 -0.601901
C61   C     C_3   0.519500 0.870263 0.726258 0.068251
H47   H     H_    0.500656 0.955889 0.751832 0.177700
H48   H     H_    0.460701 0.895803 0.694400 0.120305
C62   C     C_3   0.660373 0.873906 0.714860 -0.333769
H49   H     H_    0.714113 0.861646 0.748914 0.262116
H50   H     H_    0.686341 0.787122 0.690793 0.218735
C63   C     C_3   0.697824 0.011528 0.690189 -0.946751
H51   H     H_    0.644544 0.026550 0.656162 0.240672
H52   H     H_    0.799138 0.009899 0.681496 0.267272
H53   H     H_    0.679768 0.100510 0.714373 0.262030
C64   C     C_2   0.662529 0.136704 0.433220 0.984384
O16   O     O_2   0.597569 0.114549 0.398117 -0.479968
O17   O     O_R   0.781068 0.193176 0.424683 -0.789717
H54   H     H_    0.842903 0.169207 0.450906 0.288667
C65   C     C_2   0.712602 0.858337 0.451883 0.888683
O18   O     O_2   0.671792 0.796543 0.417205 -0.508916
O19   O     O_R   0.841114 0.885033 0.454559 -0.852642
H55   H     H_    0.888974 0.849190 0.425765 0.328005
O20   O     O_3   0.381640 0.152856 0.425699 -0.544993
C66   C     C_3   0.256259 0.187705 0.413104 0.026283
H56   H     H_    0.227143 0.279374 0.433292 0.178524
H57   H     H_    0.189679 0.101585 0.421618 0.094855
C67   C     C_3   0.246986 0.225317 0.358861 -0.289683
H58   H     H_    0.334947 0.275731 0.346245 0.265543
H59   H     H_    0.232185 0.130454 0.337364 0.204056
C68   C     C_3   0.137164 0.320458 0.346648 -0.946888
H60   H     H_    0.052027 0.288076 0.366965 0.268241
H61   H     H_    0.116893 0.314154 0.307531 0.275730
H62   H     H_    0.161501 0.430469 0.354239 0.244710
O21   O     O_3   0.450505 0.880960 0.418455 -0.532677
C69   C     C_3   0.362429 0.878945 0.380394 0.179797
H63   H     H_    0.406533 0.818847 0.351247 0.184483
H64   H     H_    0.355689 0.982280 0.363932 0.182702
C70   C     C_3   0.234695 0.810981 0.391194 -0.510563
H65   H     H_    0.251420 0.703053 0.404625 0.227592
H66   H     H_    0.181590 0.868568 0.418686 0.206036
C71   C     C_3   0.151844 0.807713 0.346400 -0.910935
H67   H     H_    0.122592 0.915221 0.336027 0.273825
H68   H     H_    0.066461 0.745163 0.354465 0.261467
H69   H     H_    0.201304 0.760896 0.315484 0.258272
C72   C     C_2   0.263135 0.220081 0.129706 0.910364
O22   O     O_2   0.193688 0.274712 0.158886 -0.587189
O23   O     O_R   0.244648 0.080576 0.117042 -0.761535
H70   H     H_    0.172833 0.034886 0.135326 0.328205

loop_
_geom_bond_atom_site_label_1
_geom_bond_atom_site_label_2
_geom_bond_distance
_ccdc_geom_bond_type
C47   C48   1.544688 S    
O21   C69   1.415793 S    
C51   C52   1.594657 S    
N2    C27   1.369173 A    
C7    C8    1.411927 A    
C12   C15   1.417487 A    
C4    C17   1.473997 S    
C62   C63   1.525421 S    
C61   H47   1.111054 S    
C63   H53   1.109553 S    
C57   H38   1.110460 S    
C70   H65   1.106708 S    
Cu1   Cu2   2.723218 S    
C45   C46   1.542769 S    
Cu1   O7    1.942932 S    
C14   C72   1.483164 S    
C37   C40   1.402494 A    
N1    C11   1.435438 S    
C26   O12   1.349362 S    
C39   H11   1.083440 S    
C49   N3    1.503625 S    
C40   H12   1.073616 S    
C71   H67   1.109218 S    
C66   H57   1.109022 S    
Cu2   N3    2.045278 S    
C44   H18   1.113348 S    
C58   H41   1.109284 S    
O4    C2    1.301845 A    
O7    C4    1.310062 A    
C51   N3    1.496452 S    
C60   H45   1.109749 S    
O23   H70   1.013983 S    
C5    O9    1.348331 S    
O14   C58   1.421844 S    
C5    N1    1.364221 A    
C53   O20   1.427753 S    
C23   C27   1.404407 A    
C41   H13   1.112968 S    
O5    C3    1.307099 A    
C69   C70   1.537890 S    
C70   H66   1.106115 S    
C29   H3    1.082828 S    
C6    O11   1.348225 S    
C2    C16   1.461551 S    
C66   H56   1.094022 S    
C51   H31   1.112505 S    
C37   O14   1.396820 S    
C67   C68   1.523474 S    
C42   H16   1.113000 S    
C44   H20   1.101698 S    
C41   H15   1.112767 S    
C8    H8    1.081157 S    
C59   C60   1.526716 S    
C72   O23   1.398156 S    
H23   C48   1.111310 S    
H27   C51   1.112881 S    
O1    Cu1   1.960451 S    
C9    C10   1.387261 A    
C1    C46   1.487359 S    
C69   H64   1.084417 S    
C36   H7    1.077761 S    
O3    Cu1   1.950057 S    
C50   N4    1.526995 S    
C57   H37   1.107524 S    
C53   N3    1.523228 S    
C59   H43   1.110481 S    
C53   C54   1.606175 S    
C12   C34   1.421140 A    
C17   C29   1.401143 A    
C6    C15   1.408884 A    
C18   C21   1.416104 A    
C72   O22   1.223316 D    
C31   O15   1.399118 S    
C60   H44   1.111086 S    
C66   C67   1.545084 S    
O17   H54   1.007734 S    
O3    C2    1.312580 A    
Cu1   N4    2.046180 S    
C56   C57   1.524552 S    
C25   C26   1.403248 A    
C60   H46   1.111242 S    
C63   H52   1.110336 S    
C8    C16   1.402356 A    
C34   C35   1.416928 A    
C13   C14   1.418785 A    
C54   H30   1.103845 S    
C9    H1    1.072600 S    
O1    C1    1.303180 A    
C21   C22   1.390617 A    
C18   C20   1.418174 A    
C49   H25   1.111316 S    
C7    C11   1.410980 A    
C28   C29   1.389969 A    
C23   C24   1.407101 A    
C14   C36   1.395117 A    
C28   H4    1.082566 S    
C50   H26   1.116937 S    
C54   O21   1.420093 S    
Cu2   O8    1.949745 S    
C33   C36   1.408990 A    
C3    C47   1.479332 S    
N1    C6    1.363070 A    
N2    C32   1.437546 S    
C27   O10   1.349655 S    
C12   C13   1.419925 A    
C68   H62   1.106137 S    
H28   C52   1.110219 S    
C43   H17   1.112811 S    
C44   C47   1.555934 S    
C50   C65   1.532726 S    
C64   O17   1.394802 S    
C7    O13   1.390216 S    
C43   C47   1.559854 S    
C26   N2    1.368755 A    
C9    C16   1.391993 A    
O8    C4    1.311311 A    
C33   C34   1.417954 A    
C54   N4    1.503554 S    
C52   H32   1.113047 S    
C42   C44   1.539184 S    
C69   H63   1.106212 S    
C65   O19   1.399320 S    
C58   C59   1.541627 S    
C68   H61   1.109449 S    
C17   C30   1.405104 A    
C62   H49   1.111022 S    
C42   C46   1.557725 S    
C61   C62   1.539671 S    
C70   C71   1.527407 S    
C59   H42   1.108069 S    
O20   C66   1.425425 S    
C45   C48   1.525207 S    
Cu1   O5    1.962542 S    
C25   C39   1.396971 A    
C31   C32   1.410076 A    
C22   C23   1.397164 A    
C10   H2    1.083215 S    
C43   H19   1.107745 S    
C21   H6    1.077142 S    
C20   C24   1.420247 A    
C71   H69   1.109094 S    
O2    Cu2   1.962117 S    
C35   C40   1.407824 A    
H24   C48   1.109422 S    
O19   H55   1.013799 S    
C62   H50   1.109602 S    
O6    C3    1.304819 A    
C61   H48   1.109588 S    
O4    Cu2   1.943235 S    
C63   H51   1.110617 S    
C19   C35   1.419624 A    
H22   C45   1.098052 S    
O13   C55   1.418017 S    
C67   H58   1.109401 S    
C56   H36   1.110910 S    
O2    C1    1.309673 A    
C49   C50   1.588060 S    
C22   H5    1.083445 S    
C15   C37   1.413602 A    
C56   H35   1.107293 S    
C24   C25   1.407895 A    
C55   H34   1.109710 S    
C19   C38   1.415324 A    
C52   N4    1.501599 S    
C71   H68   1.110409 S    
C19   C20   1.416417 A    
C41   C43   1.553515 S    
C67   H59   1.104521 S    
C38   H9    1.078633 S    
C38   C39   1.389413 A    
C53   H29   1.120418 S    
C18   C33   1.423464 A    
C5    C13   1.414657 A    
C64   O16   1.217531 D    
C30   C31   1.414836 A    
Cu2   O6    1.960875 S    
C49   C64   1.544618 S    
C55   H33   1.110745 S    
C30   H10   1.077179 S    
C65   O18   1.217435 D    
C10   C11   1.398347 A    
C42   H14   1.111065 S    
C68   H60   1.111157 S    
C58   H40   1.111119 S    
C28   C32   1.400361 A    
C57   H39   1.110863 S    
H21   C45   1.106558 S    
C41   C46   1.557239 S    
O15   C61   1.418362 S    
C55   C56   1.531858 S    
