data_mof_unit_pretest_386.cif
_audit_creation_date              2012-12-11T14:26:44-0500
_audit_creation_method            fapswitch 2.2
_symmetry_space_group_name_H-M    P1
_symmetry_Int_Tables_number       1
_space_group_crystal_system       triclinic
_cell_length_a                    15.022199
_cell_length_b                    14.975376
_cell_length_c                    14.971244
_cell_angle_alpha                 109.616488
_cell_angle_beta                  109.441826
_cell_angle_gamma                 109.677774
_cell_volume                      2582.29298975

loop_
_atom_site_label
_atom_site_type_symbol
_atom_type_description
_atom_site_fract_x
_atom_site_fract_y
_atom_site_fract_z
_atom_type_partial_charge
C1    C     C_R   0.003964 0.803589 0.097011 -0.161745
C2    C     C_R   0.676168 0.183267 0.673796 0.164145
C3    C     C_R   0.070731 0.499782 0.703353 0.174614
C4    C     C_R   0.672666 0.496761 0.951651 0.027662
C5    C     C_R   0.047248 0.593663 0.314604 -0.153879
C6    C     C_R   0.208623 0.410516 0.902753 -0.178069
C7    C     C_R   0.293560 0.806100 0.206123 -0.151448
C8    C     C_R   0.950862 0.225312 0.039171 -0.254034
C9    C     C_R   0.043561 0.227009 0.949466 0.552394
C10   C     C_R   0.204935 0.802603 0.298013 -0.120638
C11   C     C_R   0.955578 0.409809 0.223687 -0.116123
C12   C     C_R   0.779107 0.227023 0.685560 -0.162179
C13   C     C_R   0.301509 0.592315 0.998740 0.208192
C14   C     C_R   0.022256 0.502745 0.326751 0.146611
C15   C     C_R   0.300495 0.501478 0.931336 -0.064220
C16   C     C_R   0.293662 0.869319 0.297123 0.146603
C17   C     C_R   0.015422 0.187023 0.012376 -0.011561
C18   C     C_3   0.466409 0.384896 0.836958 -0.408853
C19   C     C_3   0.363105 0.383684 0.835518 -0.415177
C20   C     C_3   0.569327 0.509987 0.042352 -0.457713
C21   C     C_3   0.567060 0.592780 0.920189 0.038184
C22   C     C_3   0.570461 0.495636 0.935491 0.301472
C23   C     C_R   0.095829 0.590840 0.793442 -0.166508
C24   C     C_3   0.395051 0.497710 0.925063 0.395803
C25   C     C_3   0.469960 0.516931 0.038334 -0.392708
C26   C     C_3   0.455175 0.583007 0.897810 -0.479517
C27   C     C_2   0.377456 0.048132 0.463215 0.275788
C28   C     C_2   0.371157 0.987130 0.369457 -0.335632
C29   C     C_2   0.487904 0.128088 0.560661 -0.160327
C30   C     C_2   0.573143 0.112131 0.571918 -0.244632
C31   C     C_2   0.085192 0.417464 0.538957 0.247223
C32   C     C_2   0.116251 0.505260 0.631912 -0.308728
C33   C     C_2   0.077199 0.429880 0.443623 -0.172835
C34   C     C_R   0.684818 0.406917 0.939893 -0.137328
C35   C     C_2   0.054294 0.505064 0.429737 -0.220492
C36   C     C_2   0.140064 0.121046 0.061264 -0.078324
C37   C     C_2   0.043053 0.113622 0.040786 -0.168472
C38   C     C_2   0.160545 0.036686 0.074674 -0.138571
C39   C     C_2   0.110988 0.983890 0.115435 -0.207389
C40   C     C_R   0.006422 0.408640 0.703214 -0.125317
C41   C     C_R   0.775448 0.590178 0.024813 -0.124515
C42   C     C_R   0.687333 0.221816 0.776734 -0.128330
C43   C     C_R   0.093764 0.802325 0.004869 -0.107965
C44   C     C_R   0.068273 0.866919 0.070223 0.146138
H1    H     H_    0.983533 0.833534 0.159431 0.087128
H2    H     H_    0.176947 0.327162 0.842823 0.139370
H3    H     H_    0.338471 0.840427 0.172002 0.120433
H4    H     H_    0.905868 0.199101 0.077129 0.129054
H5    H     H_    0.171799 0.827225 0.349308 0.099680
H6    H     H_    0.913475 0.326405 0.205540 0.094072
H7    H     H_    0.466046 0.313100 0.843179 0.158877
H8    H     H_    0.462477 0.372613 0.758083 0.148735
H9    H     H_    0.303934 0.362768 0.752876 0.151544
H10   H     H_    0.800041 0.210395 0.621669 0.101999
H11   H     H_    0.323854 0.317925 0.851592 0.171244
H12   H     H_    0.567580 0.439431 0.053146 0.178858
H13   H     H_    0.424198 0.453874 0.054197 0.168320
H14   H     H_    0.630922 0.670734 0.999026 0.114703
H15   H     H_    0.403129 0.555831 0.810277 0.165538
H16   H     H_    0.469749 0.665721 0.944279 0.187958
H17   H     H_    0.644244 0.585866 0.115687 0.158405
H18   H     H_    0.497190 0.597444 0.106290 0.173061
H19   H     H_    0.155969 0.674917 0.825624 0.089709
H20   H     H_    0.440606 0.017115 0.357653 0.138505
H21   H     H_    0.498572 0.196379 0.628105 0.142543
H22   H     H_    0.567978 0.045644 0.507742 0.143529
H23   H     H_    0.160706 0.587246 0.645825 0.126904
H24   H     H_    0.075190 0.367917 0.377754 0.135198
H25   H     H_    0.053173 0.567022 0.492298 0.137249
H26   H     H_    0.198794 0.180918 0.054525 0.153976
H27   H     H_    0.981943 0.052784 0.044388 0.133055
H28   H     H_    0.197091 0.004738 0.030420 0.126161
H29   H     H_    0.621957 0.323878 0.903772 0.084322
H30   H     H_    0.081238 0.020967 0.165587 0.130980
H31   H     H_    0.983953 0.324713 0.654715 0.124459
H32   H     H_    0.795855 0.675004 0.059400 0.093638
H33   H     H_    0.623741 0.192167 0.795317 0.091705
H34   H     H_    0.154885 0.829767 0.982452 0.077629
H35   H     H_    0.094117 0.678962 0.378485 0.104531
N1    N     N_R   0.993980 0.704500 0.053430 -0.035497
N2    N     N_R   0.154170 0.443650 0.946570 -0.054139
N3    N     N_R   0.207180 0.704490 0.150760 -0.043405
N4    N     N_R   0.948740 0.295490 0.002840 -0.061091
N5    N     N_R   0.006020 0.295500 0.946570 -0.106395
N6    N     N_R   0.149890 0.704480 0.207030 -0.043821
N7    N     N_R   0.946310 0.443620 0.150760 -0.041481
N8    N     N_R   0.209610 0.556360 0.002840 -0.069563
N9    N     N_R   0.850110 0.295520 0.792970 -0.048654
N10   N     N_R   0.053690 0.556380 0.849240 -0.042549
N11   N     N_R   0.790390 0.443640 0.997160 -0.035941
N12   N     N_R   0.998260 0.443670 0.792970 -0.047471
N13   N     N_R   0.845830 0.556350 0.053430 -0.039648
N14   N     N_R   0.792820 0.295510 0.849240 -0.039801
N15   N     N_R   0.051260 0.704510 0.997160 -0.042513
N16   N     N_R   0.001740 0.556330 0.207030 -0.044004
Ni1   Ni    Ni4+2 0.997880 0.629240 0.129060 0.206971
Ni2   Ni    Ni4+2 0.002120 0.370760 0.870940 0.197233
Ni3   Ni    Ni4+2 0.129260 0.629260 0.000000 0.198151
Ni4   Ni    Ni4+2 0.870740 0.370740 0.000000 0.206783
O1    O     O_3   0.081182 0.184644 0.882605 -0.690495
C45   C     C_3   0.004008 0.138391 0.770987 0.141256
H36   H     H_    0.045583 0.124286 0.723071 0.128701
H37   H     H_    0.977026 0.195278 0.756124 0.091769
C46   C     C_3   0.905294 0.027464 0.727845 -0.283347
H38   H     H_    0.934401 0.972585 0.744475 0.212371
H39   H     H_    0.858819 0.039713 0.770566 0.191122
C47   C     C_3   0.828611 0.972402 0.604787 -1.015952
H40   H     H_    0.797389 0.025322 0.586541 0.264749
H41   H     H_    0.757968 0.892813 0.576155 0.272929
H42   H     H_    0.872021 0.956601 0.559397 0.264107
N17   N     N_2   0.362967 0.701402 0.022937 -0.119378
H43   H     H_    0.316029 0.737271 0.009161 0.154887
C48   C     C_3   0.464754 0.772184 0.127294 -1.017972
H44   H     H_    0.492508 0.859523 0.150851 0.251820
H45   H     H_    0.530750 0.757921 0.121640 0.255970
H46   H     H_    0.454713 0.759284 0.193029 0.265526
N18   N     N_2   0.588754 0.596140 0.833069 -0.101651
H47   H     H_    0.529637 0.531311 0.755068 0.178232
C49   C     C_3   0.628224 0.701409 0.838622 -0.933618
H48   H     H_    0.647972 0.695904 0.772473 0.255031
H49   H     H_    0.703931 0.765296 0.918638 0.249622
H50   H     H_    0.564684 0.725434 0.827791 0.250799
N19   N     N_2   0.280442 0.029313 0.470059 -0.105263
H51   H     H_    0.214372 0.007666 0.399276 0.166586
C50   C     C_3   0.289698 0.102186 0.569487 -0.989159
H52   H     H_    0.207749 0.073278 0.562078 0.253949
H53   H     H_    0.321527 0.186739 0.582559 0.248240
H54   H     H_    0.343862 0.101968 0.641054 0.259527
N20   N     N_2   0.052163 0.311749 0.528396 -0.114896
H55   H     H_    0.110529 0.289391 0.531783 0.158118
C51   C     C_3   0.943570 0.225251 0.438401 -0.974719
H56   H     H_    0.921648 0.150682 0.446099 0.249044
H57   H     H_    0.940554 0.204420 0.358502 0.248825
H58   H     H_    0.882602 0.250849 0.440679 0.265431

loop_
_geom_bond_atom_site_label_1
_geom_bond_atom_site_label_2
_ccdc_geom_bond_type
C16   C28   S    
C21   C26   S    
C10   N6    A    
C45   H36   S    
C27   C29   S    
C42   N14   A    
N3    Ni3   S    
C3    C23   A    
N16   Ni1   S    
C20   H12   S    
C51   H58   S    
C2    C12   A    
C46   H39   S    
C18   H8    S    
N19   H51   S    
C43   H34   S    
N5    Ni2   S    
C36   C37   D    
C24   C26   S    
C48   H44   S    
N18   C49   S    
C38   C39   D    
C11   C14   A    
N19   C50   S    
C20   C25   S    
N15   Ni3   S    
C11   N7    A    
C8    N4    A    
N13   Ni1   S    
C43   N15   A    
C18   C19   S    
C39   H30   S    
C20   H17   S    
C21   N18   S    
C33   C35   D    
C6    C15   A    
N9    N14   A    
C31   C32   D    
C50   H54   S    
C47   H40   S    
C23   N10   A    
N1    Ni1   S    
C26   H15   S    
N14   Ni4   S    
N9    Ni2   S    
C48   H46   S    
C19   H9    S    
C23   H19   S    
C45   H37   S    
C6    N2    A    
N4    Ni4   S    
C21   C22   S    
C47   H41   S    
C25   H13   S    
C46   H38   S    
C5    N16   A    
C36   H26   S    
C18   H7    S    
C38   H28   S    
C49   H49   S    
C4    C34   A    
C12   N9    A    
C24   C25   S    
C14   C35   S    
C27   N19   S    
C34   H29   S    
C7    H3    S    
C43   C44   A    
C8    H4    S    
C29   C30   D    
C4    C22   S    
C1    C44   A    
N11   N13   A    
N4    N5    A    
C13   N8    A    
C31   C33   S    
N17   C48   S    
C17   C37   S    
N12   Ni2   S    
N7    Ni4   S    
C5    C14   A    
C30   H22   S    
C32   H23   S    
C29   H21   S    
C28   H20   S    
C9    C17   A    
C15   C24   S    
C20   C22   S    
C3    C40   A    
C45   C46   S    
C37   H27   S    
C50   H52   S    
C47   H42   S    
C5    H35   S    
C7    N3    A    
N1    N15   A    
C51   H56   S    
N11   Ni4   S    
N20   H55   S    
C49   H50   S    
C19   H11   S    
C34   N11   A    
C7    C16   A    
C6    H2    S    
N17   H43   S    
C18   C22   S    
C51   H57   S    
C49   H48   S    
C39   C44   S    
C9    O1    S    
N3    N6    A    
C8    C17   A    
C40   H31   S    
N10   Ni3   S    
C2    C30   S    
N8    Ni3   S    
C13   C15   A    
C19   C24   S    
C21   H14   S    
C31   N20   S    
C11   H6    S    
C10   C16   A    
N18   H47   S    
C41   H32   S    
N2    N8    A    
C1    H1    S    
N2    Ni2   S    
C2    C42   A    
C36   C38   S    
O1    C45   S    
N6    Ni1   S    
C25   H18   S    
C40   N12   A    
C3    C32   S    
N7    N16   A    
C9    N5    A    
C41   N13   A    
C35   H25   S    
C42   H33   S    
C13   N17   S    
N10   N12   A    
C4    C41   A    
C27   C28   D    
C50   H53   S    
C1    N1    A    
C48   H45   S    
C10   H5    S    
C26   H16   S    
C46   C47   S    
C12   H10   S    
C33   H24   S    
N20   C51   S    
