data_mof_unit_pretest_626.cif
_audit_creation_date              2013-03-05T15:51:50-0500
_audit_creation_method            fapswitch 2.2
_symmetry_space_group_name_H-M    P1
_symmetry_Int_Tables_number       1
_space_group_crystal_system       triclinic
_cell_length_a                    10.894257
_cell_length_b                    10.992165
_cell_length_c                    18.838443
_cell_angle_alpha                 90.158171
_cell_angle_beta                  89.86329
_cell_angle_gamma                 60.089833
_cell_volume                      1955.43401341

loop_
_atom_site_label
_atom_site_type_symbol
_atom_site_description
_atom_site_fract_x
_atom_site_fract_y
_atom_site_fract_z
_atom_type_partial_charge
O1    O     O_R   0.507380 0.255700 0.581440 -0.503921
O2    O     O_R   0.280320 0.527350 0.578930 -0.507803
C1    C     C_R   0.236199 0.647099 0.609486 0.536366
O3    O     O_R   0.260510 0.739590 0.584590 -0.531243
O4    O     O_R   0.532300 0.695080 0.573820 -0.443616
C2    C     C_R   0.629713 0.590447 0.609161 0.557619
O5    O     O_R   0.744840 0.503500 0.576370 -0.525972
O6    O     O_R   0.699120 0.276560 0.571960 -0.528244
C3    C     C_R   0.630791 0.223920 0.601493 0.554092
O7    O     O_R   0.498940 0.256500 0.419860 -0.505654
O8    O     O_R   0.272500 0.528080 0.429150 -0.508201
C4    C     C_R   0.226693 0.646693 0.399832 0.549155
O9    O     O_R   0.252060 0.740380 0.423010 -0.517153
O10   O     O_R   0.524480 0.695810 0.424040 -0.493198
C5    C     C_R   0.638835 0.619232 0.390233 0.561869
O11   O     O_R   0.736390 0.504290 0.414790 -0.514120
O12   O     O_R   0.691300 0.277290 0.422170 -0.510279
C6    C     C_R   0.613451 0.236282 0.392641 0.556389
Cr1   Cr    Cr6+3 0.392960 0.397920 0.502240 1.033854
Cr2   Cr    Cr6+3 0.398340 0.708480 0.501250 1.058767
Cr3   Cr    Cr6+3 0.708670 0.393570 0.496460 1.013054
O13   O     O_3   0.499990 0.499990 0.499980 -0.284895
C7    C     C_3   0.588893 0.808897 0.778898 -0.213967
H1    H     H_    0.638097 0.876170 0.780762 0.170777
H2    H     H_    0.486098 0.865494 0.807903 0.093471
C8    C     C_3   0.561510 0.783382 0.701375 0.110832
H3    H     H_    0.875109 0.669128 0.774741 0.151027
H4    H     H_    0.855595 0.613380 0.661148 0.198544
C9    C     C_3   0.830998 0.597255 0.774122 -0.230620
C10   C     C_3   0.620388 0.573095 0.812372 -0.255477
C11   C     C_3   0.688977 0.666618 0.815607 0.021017
H5    H     H_    0.687638 0.472282 0.840002 0.127145
H6    H     H_    0.516333 0.626054 0.840347 0.121426
C12   C     C_3   0.650151 0.622769 0.683316 0.043200
C13   C     C_3   0.809892 0.567857 0.698005 -0.207707
C14   C     C_3   0.598582 0.545938 0.734185 -0.296274
H7    H     H_    0.484584 0.582814 0.725050 0.110598
H8    H     H_    0.909530 0.496166 0.798737 0.137987
H9    H     H_    0.873724 0.453356 0.689213 0.111289
C15   C     C_R   0.696646 0.130831 0.818482 0.000936
C16   C     C_R   0.816118 0.100314 0.776934 0.038090
C17   C     C_R   0.805884 0.111261 0.703167 0.038490
C18   C     C_R   0.572422 0.143729 0.709401 -0.107729
C19   C     C_R   0.577717 0.143526 0.782242 -0.192737
C20   C     C_3   0.914829 0.158051 0.778207 -0.286326
C21   C     C_3   0.908077 0.162649 0.697425 -0.285057
C22   C     C_R   0.677058 0.149762 0.669142 0.067184
H10   H     H_    0.477183 0.154870 0.685674 0.184157
H11   H     H_    0.487447 0.149444 0.809660 0.141576
H12   H     H_    0.021086 0.081879 0.798561 0.140446
H13   H     H_    0.867642 0.263238 0.803207 0.124363
C23   C     C_R   0.166372 0.678290 0.831888 0.016259
C24   C     C_R   0.145518 0.582301 0.792457 0.019612
C25   C     C_R   0.154121 0.578477 0.718815 0.005421
C26   C     C_R   0.186955 0.779242 0.721510 -0.158643
C27   C     C_R   0.185060 0.778594 0.795171 -0.166045
C28   C     C_3   0.226200 0.426539 0.797515 -0.288935
C29   C     C_3   0.234667 0.422791 0.717242 -0.274431
C30   C     C_R   0.181043 0.672871 0.682105 0.030590
H14   H     H_    0.206249 0.856350 0.696183 0.134433
H15   H     H_    0.197183 0.857780 0.823418 0.126295
H16   H     H_    0.161118 0.383091 0.819088 0.136698
H17   H     H_    0.342604 0.385609 0.696637 0.159532
H18   H     H_    0.174433 0.377462 0.691759 0.140455
C31   C     C_R   0.650789 0.658781 0.165260 0.015151
C32   C     C_R   0.747504 0.536898 0.201783 0.033233
C33   C     C_R   0.742976 0.529967 0.274254 0.037347
C34   C     C_R   0.527972 0.752292 0.277687 -0.158981
C35   C     C_R   0.532003 0.760407 0.203065 -0.166836
C36   C     C_3   0.906801 0.456992 0.202619 -0.268118
C37   C     C_3   0.899741 0.451227 0.282410 -0.279933
C38   C     C_R   0.641774 0.641430 0.314184 0.013361
H19   H     H_    0.439612 0.834573 0.306645 0.131641
H20   H     H_    0.448766 0.850375 0.176051 0.119389
H21   H     H_    0.952893 0.521729 0.185181 0.173171
H22   H     H_    0.951783 0.352277 0.176701 0.124650
H23   H     H_    0.941094 0.343267 0.302899 0.134019
H24   H     H_    0.939978 0.513744 0.310134 0.141746
C39   C     C_R   0.636847 0.187373 0.169248 0.018123
C40   C     C_R   0.517709 0.207512 0.207298 0.024916
C41   C     C_R   0.514943 0.218117 0.279938 0.039135
C42   C     C_R   0.736422 0.216446 0.278467 -0.162578
C43   C     C_R   0.738406 0.208543 0.204427 -0.162451
C44   C     C_3   0.445058 0.122350 0.209475 -0.274359
C45   C     C_3   0.441976 0.135056 0.289450 -0.276619
C46   C     C_R   0.629618 0.209400 0.317078 0.016955
H25   H     H_    0.820765 0.222233 0.305411 0.131653
H26   H     H_    0.827264 0.203383 0.175869 0.123139
H27   H     H_    0.338126 0.177741 0.185041 0.126756
H28   H     H_    0.333236 0.198810 0.311416 0.135277
H29   H     H_    0.509328 0.033440 0.316701 0.144857
C47   C     C_R   0.165815 0.667635 0.179209 0.019068
C48   C     C_R   0.188433 0.765504 0.216298 0.034167
C49   C     C_R   0.199514 0.759476 0.288047 0.039342
C50   C     C_R   0.196515 0.542134 0.288675 -0.159179
C51   C     C_R   0.185422 0.547242 0.214645 -0.169749
C52   C     C_3   0.106301 0.923636 0.218821 -0.267713
C53   C     C_3   0.120333 0.914457 0.298472 -0.280122
C54   C     C_R   0.191239 0.656029 0.326051 0.019092
H30   H     H_    0.205917 0.451865 0.316420 0.133899
H31   H     H_    0.182044 0.463264 0.186310 0.119808
H32   H     H_    0.994772 0.967721 0.201918 0.169968
H33   H     H_    0.164601 0.971365 0.193589 0.126410
H34   H     H_    0.187832 0.955564 0.319494 0.138589
O14   O     O_R   0.089400 0.825690 0.930570 -0.525960
O15   O     O_R   0.818460 0.054440 0.929850 -0.494944
C55   C     C_R   0.704664 0.096316 0.894087 0.545572
O16   O     O_R   0.606060 0.077150 0.915510 -0.534083
O17   O     O_R   0.646550 0.806680 0.917570 -0.510391
C56   C     C_R   0.720411 0.686508 0.889465 0.544631
O18   O     O_R   0.837170 0.593410 0.915250 -0.526905
O19   O     O_R   0.065200 0.635530 0.931570 -0.499532
C57   C     C_R   0.115929 0.707955 0.904942 0.543488
O20   O     O_R   0.068260 0.828890 0.091840 -0.526268
O21   O     O_R   0.798870 0.057410 0.079340 -0.512516
C58   C     C_R   0.672813 0.111117 0.102627 0.547075
O22   O     O_R   0.584930 0.080350 0.076780 -0.522462
O23   O     O_R   0.626960 0.809650 0.067060 -0.507553
C59   C     C_R   0.694533 0.688651 0.096955 0.543374
O24   O     O_R   0.816040 0.596610 0.076510 -0.524908
O25   O     O_R   0.045610 0.638500 0.081060 -0.513817
C60   C     C_R   0.095615 0.708889 0.111694 0.545896
Cr4   Cr    Cr6+3 0.937650 0.938540 0.007610 1.007337
Cr5   Cr    Cr6+3 0.625330 0.937370 0.994520 1.003713
Cr6   Cr    Cr6+3 0.937940 0.625230 0.001190 1.003803
O26   O     O_3   0.833640 0.833710 0.001100 -0.245432
H35   H     H_    0.655574 0.431549 0.723651 0.119449
H36   H     H_    0.860107 0.268033 0.674098 0.148830
H37   H     H_    0.008451 0.084238 0.671528 0.146388
H38   H     H_    0.329724 0.389007 0.824103 0.136168
H39   H     H_    0.447260 0.815570 0.697521 0.108629
H40   H     H_    0.515330 0.013429 0.190886 0.166823
N1    N     N_R   0.588939 0.869991 0.651654 0.074574
O27   O     O_R   0.487784 0.958462 0.610716 -0.348202
O28   O     O_R   0.713359 0.858650 0.646809 -0.375354
H41   H     H_    0.017821 0.951892 0.326728 0.139589

loop_
_geom_bond_atom_site_label_1
_geom_bond_atom_site_label_2
_geom_bond_distance
_ccdc_geom_bond_type
C19   H11   1.082473 S    
C51   H31   1.081503 S    
C10   H5    1.109520 S    
C26   C27   1.387844 A    
O11   Cr3   2.077057 S    
C26   C30   1.411698 A    
H3    C9    1.110778 S    
C16   C17   1.395107 A    
C50   C51   1.398994 A    
C40   C44   1.497801 S    
C21   H37   1.109883 S    
C52   C53   1.507185 S    
C45   H29   1.112280 S    
C28   H16   1.110580 S    
O4    Cr2   1.953654 S    
C32   C36   1.504483 S    
C23   C57   1.455157 S    
C5    C38   1.456888 S    
O8    Cr1   1.952455 S    
C48   C49   1.356152 A    
C20   H13   1.107250 S    
C49   C54   1.385685 A    
O14   C57   1.270572 A    
C14   H7    1.111602 S    
O22   Cr5   2.087748 S    
C33   C38   1.387932 A    
C10   C11   1.544287 S    
C50   C54   1.410539 A    
O15   C55   1.280341 A    
C49   C53   1.488843 S    
O21   C58   1.270463 A    
C53   H41   1.112447 S    
C47   C51   1.402217 A    
C58   O22   1.261885 A    
O14   Cr4   2.076437 S    
C12   C13   1.557260 S    
C17   C21   1.482289 S    
C7    C8    1.543924 S    
O23   C59   1.287537 A    
C4    C54   1.433669 S    
C56   O18   1.268351 A    
C8    C12   1.568461 S    
H4    C13   1.108659 S    
C34   C35   1.410795 A    
O15   Cr4   1.955660 S    
O18   Cr6   2.082524 S    
C55   O16   1.259089 A    
C36   C37   1.508049 S    
C18   H10   1.080335 S    
C12   C14   1.556367 S    
C52   H32   1.108156 S    
C10   H6    1.113111 S    
C32   C33   1.369728 A    
C26   H14   1.081507 S    
O16   Cr5   2.076703 S    
O19   C57   1.276915 A    
O6    Cr3   1.957271 S    
C25   C30   1.395473 A    
C29   H18   1.111573 S    
O1    Cr1   2.074168 S    
O21   Cr4   1.956906 S    
O10   Cr2   1.954975 S    
C28   H38   1.110346 S    
Cr1   O13   1.981140 S    
O1    C3    1.267714 A    
C44   C45   1.511433 S    
C24   C28   1.487821 S    
C50   H30   1.081670 S    
O6    C3    1.275858 A    
Cr4   O26   1.982128 S    
O23   Cr5   1.955655 S    
C34   H19   1.081085 S    
C20   C21   1.523511 S    
C44   H40   1.106565 S    
O12   Cr3   1.964878 S    
C2    C12   1.484899 S    
O3    Cr2   2.076100 S    
C9    H8    1.112817 S    
C13   H9    1.104790 S    
C18   C19   1.373516 A    
O25   Cr6   1.959315 S    
C47   C60   1.438814 S    
N1    O27   1.301664 A    
O10   C5    1.270291 A    
O7    Cr1   2.084750 S    
C34   C38   1.413083 A    
O12   C6    1.270451 A    
C31   C59   1.464959 S    
C35   H20   1.081640 S    
C6    C46   1.445415 S    
C59   O24   1.258571 A    
O19   Cr6   1.950315 S    
C52   H33   1.112126 S    
C15   C55   1.466516 S    
O20   Cr4   2.075129 S    
C15   C16   1.406235 A    
Cr2   O13   1.986865 S    
C3    C22   1.463453 S    
C36   H22   1.112051 S    
Cr6   O26   1.986437 S    
C42   H25   1.079960 S    
C14   H35   1.106958 S    
C44   H27   1.111956 S    
C1    O3    1.262655 A    
C48   C52   1.507494 S    
C37   H23   1.109235 S    
C23   C24   1.397221 A    
Cr5   O26   1.971575 S    
C25   C29   1.483751 S    
C21   H36   1.099219 S    
C29   H17   1.103680 S    
C31   C35   1.406871 A    
O9    Cr2   2.071661 S    
O2    Cr1   1.963737 S    
O24   Cr6   2.070271 S    
C41   C46   1.394499 A    
C40   C41   1.372035 A    
C45   H28   1.110788 S    
O25   C60   1.283685 A    
O17   Cr5   1.968315 S    
C24   C25   1.389350 A    
C2    O5    1.290621 A    
C9    C13   1.512150 S    
C10   C14   1.544347 S    
O2    C1    1.287854 A    
C9    C11   1.549333 S    
C8    N1    1.469787 S    
C42   C46   1.405368 A    
O17   C56   1.267590 A    
C39   C43   1.406032 A    
C28   C29   1.514001 S    
O4    C2    1.297169 A    
C20   H12   1.106970 S    
O7    C6    1.260327 A    
C39   C58   1.447593 S    
O5    Cr3   2.085483 S    
C47   C48   1.402593 A    
C11   C56   1.475203 S    
C43   H26   1.082747 S    
C33   C37   1.489054 S    
C17   C22   1.404667 A    
C7    H2    1.113608 S    
C7    H1    1.109346 S    
C39   C40   1.398411 A    
O20   C60   1.256935 A    
C23   C27   1.401054 A    
C15   C19   1.410225 A    
C4    O9    1.268651 A    
C31   C32   1.406858 A    
C36   H21   1.106031 S    
N1    O28   1.300764 A    
C16   C20   1.496815 S    
C27   H15   1.081983 S    
C42   C43   1.396709 A    
Cr3   O13   1.971770 S    
C18   C22   1.396635 A    
C53   H34   1.110645 S    
C37   H24   1.112057 S    
C41   C45   1.490518 S    
C8    H39   1.114015 S    
C5    O11   1.267396 A    
O8    C4    1.269027 A    
C7    C11   1.556279 S    
C1    C30   1.461844 S    
