data_mof_unit_pretest_628.cif
_audit_creation_date              2012-12-10T19:45:02-0500
_audit_creation_method            fapswitch 2.2
_symmetry_space_group_name_H-M    P1
_symmetry_Int_Tables_number       1
_space_group_crystal_system       triclinic
_cell_length_a                    15.073301
_cell_length_b                    10.818634
_cell_length_c                    13.678874
_cell_angle_alpha                 90.086429
_cell_angle_beta                  89.878088
_cell_angle_gamma                 89.861656
_cell_volume                      2230.63443831

loop_
_atom_site_label
_atom_site_type_symbol
_atom_type_description
_atom_site_fract_x
_atom_site_fract_y
_atom_site_fract_z
_atom_type_partial_charge
C1    C     C_R   0.497600 0.262156 0.499794 0.804091
C2    C     C_R   0.587532 0.879185 0.662190 0.111007
C3    C     C_R   0.446290 0.108034 0.241879 -0.194224
C4    C     C_R   0.554779 0.891463 0.757864 -0.189933
C5    C     C_R   0.403646 0.166218 0.163726 -0.226097
C6    C     C_R   0.597662 0.832755 0.835622 -0.206253
C7    C     C_R   0.326694 0.236330 0.180048 0.498279
C8    C     C_R   0.674522 0.762655 0.818713 0.499262
C9    C     C_R   0.465228 0.933158 0.421606 -0.216832
C10   C     C_R   0.534916 0.066821 0.578344 -0.216899
C11   C     C_R   0.504337 0.871698 0.500524 -0.076562
C12   C     C_R   0.502435 0.737838 0.500198 0.806916
C13   C     C_R   0.495771 0.128290 0.499433 -0.078002
C14   C     C_R   0.540587 0.938847 0.579519 0.033955
C15   C     C_R   0.459659 0.061129 0.420355 0.032829
C16   C     C_R   0.328453 0.500411 0.500092 0.817990
C17   C     C_R   0.671545 0.499547 0.499910 0.815450
C18   C     C_R   0.558906 0.427577 0.793068 0.068546
C19   C     C_R   0.441161 0.572542 0.206938 0.064250
C20   C     C_R   0.440816 0.572774 0.792971 0.078577
C21   C     C_R   0.559256 0.427367 0.207014 0.090924
C22   C     C_R   0.438647 0.575649 0.896570 -0.095108
C23   C     C_R   0.045828 0.481583 0.677628 -0.149263
C24   C     C_R   0.561725 0.425030 0.103419 -0.106868
C25   C     C_R   0.499760 0.500699 0.948140 0.083549
C26   C     C_R   0.500529 0.499827 0.051849 0.077725
C27   C     C_R   0.560094 0.426137 0.895926 -0.021286
C28   C     C_R   0.440099 0.574205 0.104075 -0.002343
C29   C     C_R   0.377761 0.649904 0.950239 0.390377
C30   C     C_R   0.622977 0.351372 0.049806 0.440947
C31   C     C_R   0.379563 0.648361 0.053077 -0.209939
C32   C     C_R   0.620814 0.352266 0.946936 -0.194529
C33   C     C_R   0.814858 0.508385 0.411221 -0.213779
C34   C     C_R   0.954156 0.517915 0.322361 -0.175838
C35   C     C_R   0.185136 0.491601 0.588815 -0.186225
C36   C     C_R   0.768351 0.498721 0.499797 -0.085995
C37   C     C_R   0.231643 0.501045 0.500211 -0.089480
C38   C     C_R   0.814510 0.488342 0.588345 -0.243470
C39   C     C_R   0.185480 0.510998 0.411631 -0.245801
C40   C     C_R   0.906878 0.489316 0.589112 0.094767
C41   C     C_R   0.093112 0.509982 0.410861 0.097790
C42   C     C_R   0.953511 0.499276 0.499929 0.069805
C43   C     C_R   0.046480 0.500088 0.500049 0.064039
C44   C     C_R   0.907265 0.508455 0.410629 0.091674
C45   C     C_R   0.292455 0.246968 0.274976 -0.181878
C46   C     C_R   0.092725 0.491125 0.589366 0.091009
C47   C     C_R   0.953338 0.480633 0.677498 -0.174363
C48   C     C_R   0.046647 0.518645 0.322474 -0.172900
C49   C     C_R   0.708444 0.752613 0.723616 -0.180946
C50   C     C_R   0.335517 0.189944 0.353329 -0.182825
C51   C     C_R   0.665088 0.810034 0.645650 -0.184526
C52   C     C_R   0.413133 0.120708 0.337358 0.112378
Cu1   Cu    Cu3+1 0.500010 0.499980 0.597420 0.967624
Cu2   Cu    Cu3+1 0.499990 0.500020 0.402580 0.966643
H1    H     H_    0.779269 0.516408 0.342720 0.193991
H2    H     H_    0.667361 0.295923 0.905984 0.182998
H3    H     H_    0.778669 0.479554 0.656798 0.173430
H4    H     H_    0.221317 0.519624 0.343162 0.173317
H5    H     H_    0.918148 0.473245 0.746413 0.191969
H6    H     H_    0.081836 0.525978 0.253554 0.191387
H7    H     H_    0.080676 0.474797 0.746641 0.188255
H8    H     H_    0.919307 0.524823 0.253358 0.189962
H9    H     H_    0.232179 0.298880 0.288189 0.167846
H10   H     H_    0.768678 0.700797 0.709968 0.169392
H11   H     H_    0.308477 0.199691 0.426378 0.139795
H12   H     H_    0.220714 0.484163 0.657387 0.186580
H13   H     H_    0.691839 0.800620 0.572446 0.140124
H14   H     H_    0.505559 0.053938 0.228216 0.199506
H15   H     H_    0.495614 0.945587 0.771974 0.197542
H16   H     H_    0.430549 0.156129 0.090705 0.185717
H17   H     H_    0.571002 0.842406 0.908787 0.185404
H18   H     H_    0.273766 0.890096 0.997029 0.356333
H19   H     H_    0.804625 0.293817 0.218331 0.377751
H20   H     H_    0.154293 0.265206 0.997285 0.391692
H21   H     H_    0.848337 0.730912 0.999527 0.391956
H22   H     H_    0.436067 0.881104 0.361956 0.155581
H23   H     H_    0.564105 0.118871 0.637978 0.157066
H24   H     H_    0.605045 0.370823 0.751945 0.125164
H25   H     H_    0.395006 0.629261 0.248067 0.124486
H26   H     H_    0.395795 0.628309 0.750280 0.196970
H27   H     H_    0.603995 0.371321 0.249670 0.196191
H28   H     H_    0.332975 0.704545 0.094056 0.170817
N1    N     N_R   0.499960 0.499900 0.743810 -0.209263
N2    N     N_R   0.500040 0.500100 0.256190 -0.209891
O1    O     O_R   0.500000 0.319630 0.582270 -0.587985
O2    O     O_2   0.236866 0.662915 0.832332 -0.254548
O3    O     O_3   0.235466 0.821404 0.974603 -0.466372
O4    O     O_2   0.659890 0.163889 0.170527 -0.331761
O5    O     O_2   0.763280 0.196442 0.034545 -0.236309
O6    O     O_3   0.767239 0.351227 0.179833 -0.549960
O7    O     O_2   0.239310 0.433464 0.112747 -0.315378
O8    O     O_2   0.331832 0.318931 0.995152 -0.309885
O9    O     O_3   0.183269 0.220244 0.051642 -0.495583
O10   O     O_2   0.670125 0.679363 0.003464 -0.304631
O11   O     O_2   0.761385 0.564503 0.884877 -0.321772
O12   O     O_R   0.500000 0.680370 0.417730 -0.588295
O13   O     O_3   0.818811 0.776916 0.946112 -0.478413
O14   O     O_R   0.499990 0.319660 0.417730 -0.572983
O15   O     O_R   0.500010 0.680340 0.582270 -0.571098
O16   O     O_R   0.370260 0.499960 0.582280 -0.583273
O17   O     O_R   0.629740 0.500040 0.417720 -0.582947
O18   O     O_R   0.370250 0.499990 0.417740 -0.593022
O19   O     O_R   0.629750 0.500010 0.582260 -0.593370
O20   O     O_2   0.341844 0.834495 0.825367 -0.334525
S1    S     S_3+6 0.297038 0.743642 0.892101 0.018912
S2    S     S_3+6 0.704690 0.259765 0.108374 0.008298
S3    S     S_3+6 0.271154 0.307479 0.081990 -0.008261
S4    S     S_3+6 0.730318 0.690638 0.916203 0.002847

loop_
_geom_bond_atom_site_label_1
_geom_bond_atom_site_label_2
_ccdc_geom_bond_type
C33   H1    S    
C40   C47   A    
C38   C40   A    
C22   C29   A    
Cu2   O17   S    
C3    H14   S    
C34   H8    S    
Cu2   N2    S    
C39   C41   A    
Cu1   Cu2   S    
Cu1   O15   S    
O10   S4    D    
C31   H28   S    
C7    C45   A    
C35   C37   A    
C24   C26   A    
H19   O6    S    
C11   C14   A    
H21   O13   S    
C33   C36   A    
C17   O17   A    
C4    H15   S    
C12   O15   A    
O13   S4    S    
C49   C51   A    
C22   C25   A    
O5    S2    D    
C50   C52   A    
C9    H22   S    
Cu2   O12   S    
C16   C37   S    
C40   C42   A    
C49   H10   S    
C30   S2    S    
C41   C43   A    
H20   O9    S    
C29   S1    S    
C42   C44   A    
C8    S4    S    
O20   S1    D    
C43   C46   A    
C10   H23   S    
C48   H6    S    
Cu1   O16   S    
C1    O1    A    
C6    H17   S    
C23   C47   A    
C20   H26   S    
O7    S3    D    
C34   C44   A    
O6    S2    S    
C4    C6    A    
C10   C14   A    
C5    C7    A    
C16   O16   A    
C6    C8    A    
C35   H12   S    
C25   C26   A    
C39   H4    S    
C45   H9    S    
C2    C4    A    
C5    H16   S    
C38   H3    S    
O4    S2    D    
O8    S3    D    
O3    S1    S    
C21   N2    A    
C18   H24   S    
C18   N1    A    
C51   H13   S    
C15   C52   S    
C19   H25   S    
C19   C28   A    
C9    C11   A    
C16   O18   A    
C17   C36   S    
C20   C22   A    
C13   C15   A    
C7    S3    S    
C21   C24   A    
O2    S1    D    
C1    C13   S    
C42   C43   A    
C19   N2    A    
H18   O3    S    
C27   C32   A    
C33   C44   A    
Cu2   O18   S    
C28   C31   A    
C12   O12   A    
C18   C27   A    
C21   H27   S    
C3    C5    A    
C10   C13   A    
C1    O14   A    
C3    C52   A    
C25   C27   A    
C26   C28   A    
C2    C51   A    
Cu1   N1    S    
C36   C38   A    
C9    C15   A    
C37   C39   A    
O9    S3    S    
C30   C32   A    
C45   C50   A    
Cu1   O19   S    
C41   C48   A    
C17   O19   A    
C2    C14   S    
C50   H11   S    
C24   C30   A    
O11   S4    D    
C47   H5    S    
C23   H7    S    
C34   C48   A    
C29   C31   A    
C20   N1    A    
C23   C46   A    
Cu2   O14   S    
Cu1   O1    S    
C35   C46   A    
C8    C49   A    
C32   H2    S    
C11   C12   S    
