data_mof_unit_pretest_1629.cif
_audit_creation_date              2012-12-10T18:50:54-0500
_audit_creation_method            fapswitch 2.2
_symmetry_space_group_name_H-M    P1
_symmetry_Int_Tables_number       1
_space_group_crystal_system       triclinic
_cell_length_a                    37.089603
_cell_length_b                    30.270804
_cell_length_c                    21.724552
_cell_angle_alpha                 90.540698
_cell_angle_beta                  125.302154
_cell_angle_gamma                 89.477581
_cell_volume                      19904.6742227

loop_
_atom_site_label
_atom_site_type_symbol
_atom_type_description
_atom_site_fract_x
_atom_site_fract_y
_atom_site_fract_z
_atom_type_partial_charge
C1    C     C_R   0.413712 0.500080 0.913670 0.863647
C2    C     C_R   0.703299 0.461211 0.186721 -0.178409
C3    C     C_R   0.500346 0.134355 0.501139 -0.030836
C4    C     C_R   0.000208 0.726104 0.501380 0.111440
C5    C     C_R   0.500844 0.226096 0.502408 0.111443
C6    C     C_R   0.537783 0.703116 0.554396 -0.178750
C7    C     C_R   0.461890 0.703062 0.443034 -0.178171
C8    C     C_R   0.961210 0.203297 0.477802 -0.178377
C9    C     C_R   0.037437 0.202886 0.517893 -0.178753
C10   C     C_R   0.537872 0.657337 0.554612 -0.193937
C11   C     C_R   0.461761 0.657261 0.443745 -0.190684
C12   C     C_R   0.961333 0.157501 0.478116 -0.190706
C13   C     C_R   0.796882 0.962214 0.813485 -0.178701
C14   C     C_R   0.037779 0.157098 0.519171 -0.193903
C15   C     C_R   0.499807 0.634246 0.499440 -0.027321
C16   C     C_R   0.999686 0.134247 0.499113 -0.027619
C17   C     C_R   0.011804 0.296551 0.457114 -0.177488
C18   C     C_R   0.986704 0.297062 0.538611 -0.177878
C19   C     C_R   0.487544 0.796660 0.433394 -0.177363
C20   C     C_R   0.512103 0.796957 0.564128 -0.177695
C21   C     C_R   0.499840 0.725986 0.498535 0.111231
C22   C     C_R   0.999220 0.225987 0.497519 0.110964
C23   C     C_R   0.999656 0.365654 0.498863 -0.032202
C24   C     C_R   0.203300 0.961190 0.186808 -0.178286
C25   C     C_R   0.499988 0.865654 0.499277 -0.030996
C26   C     C_R   0.011775 0.342363 0.457317 -0.193455
C27   C     C_R   0.987213 0.342844 0.539648 -0.192663
C28   C     C_R   0.487913 0.842473 0.433839 -0.193315
C29   C     C_R   0.511956 0.842734 0.564352 -0.192876
C30   C     C_2   0.529833 0.526059 0.746348 -0.156368
C31   C     C_2   0.470143 0.473969 0.253624 -0.156070
C32   C     C_2   0.029844 0.026042 0.746362 -0.156532
C33   C     C_2   0.970154 0.973951 0.253638 -0.155902
C34   C     C_2   0.497693 0.506335 0.682559 -0.337101
C35   C     C_R   0.342662 0.462146 0.859481 -0.193996
C36   C     C_2   0.502306 0.493654 0.317439 -0.338641
C37   C     C_2   0.997692 0.006339 0.682559 -0.339224
C38   C     C_2   0.002306 0.993658 0.317439 -0.336515
C39   C     C_2   0.525994 0.529899 0.809456 -0.156090
C40   C     C_2   0.473979 0.470125 0.190512 -0.156432
C41   C     C_2   0.026004 0.029887 0.809468 -0.156561
C42   C     C_2   0.973989 0.970112 0.190524 -0.155939
C43   C     C_R   0.657503 0.461333 0.140734 -0.190672
C44   C     C_R   0.842661 0.962124 0.859390 -0.193856
C45   C     C_R   0.157504 0.961314 0.140819 -0.190666
C46   C     C_R   0.365756 0.500193 0.865387 -0.027346
C47   C     C_R   0.634247 0.499686 0.134821 -0.027867
C48   C     C_R   0.865754 0.000193 0.865385 -0.027172
C49   C     C_R   0.586289 0.499910 0.086363 0.863577
C50   C     C_R   0.134248 0.999686 0.134822 -0.027661
C51   C     C_R   0.342746 0.538222 0.824646 -0.190748
C52   C     C_R   0.657095 0.537780 0.175694 -0.193862
C53   C     C_R   0.842742 0.038243 0.824732 -0.190665
C54   C     C_R   0.157098 0.037800 0.175610 -0.193862
C55   C     C_R   0.296945 0.538093 0.778005 -0.178296
C56   C     C_R   0.702882 0.537438 0.222417 -0.178728
C57   C     C_R   0.796942 0.038116 0.778093 -0.178150
C58   C     C_R   0.202886 0.037459 0.222330 -0.178672
C59   C     C_R   0.274019 0.500162 0.772712 0.111028
C60   C     C_R   0.913711 0.000080 0.913669 0.863701
C61   C     C_R   0.725985 0.499222 0.227689 0.110746
C62   C     C_R   0.774016 0.000162 0.772709 0.111340
C63   C     C_R   0.225988 0.999222 0.227690 0.111089
C64   C     C_R   0.203353 0.512365 0.649159 -0.177612
C65   C     C_R   0.796544 0.511812 0.351228 -0.177537
C66   C     C_R   0.703347 0.012470 0.649201 -0.177335
C67   C     C_R   0.296548 0.011911 0.351187 -0.177237
C68   C     C_R   0.157540 0.511998 0.603426 -0.193218
C69   C     C_R   0.842356 0.511786 0.396804 -0.193441
C70   C     C_R   0.657534 0.012103 0.603467 -0.193302
C71   C     C_R   0.086290 0.999910 0.086363 0.863533
C72   C     C_R   0.342359 0.011885 0.396764 -0.193403
C73   C     C_R   0.134352 0.500020 0.633647 -0.032473
C74   C     C_R   0.865652 0.499664 0.366438 -0.032278
C75   C     C_R   0.634348 0.000020 0.633644 -0.030981
C76   C     C_R   0.365655 0.999662 0.366441 -0.030879
C77   C     C_R   0.501630 0.499651 0.882622 0.937330
C78   C     C_R   0.498372 0.500349 0.117380 0.937331
C79   C     C_R   0.001628 0.999651 0.882620 0.937485
C80   C     C_R   0.998370 0.000349 0.117378 0.937202
C81   C     C_R   0.157267 0.488148 0.709714 -0.192893
C82   C     C_2   0.506345 0.497718 0.821480 -0.338556
C83   C     C_R   0.842848 0.487215 0.290412 -0.192652
C84   C     C_R   0.657263 0.988041 0.709663 -0.192856
C85   C     C_R   0.342853 0.987112 0.290462 -0.192779
C86   C     C_R   0.203044 0.487997 0.755116 -0.177990
C87   C     C_R   0.797065 0.486704 0.245162 -0.177876
C88   C     C_R   0.703040 0.987892 0.755065 -0.177658
C89   C     C_R   0.297071 0.986602 0.245212 -0.177648
C90   C     C_R   0.226096 0.500212 0.724927 0.111298
C91   C     C_R   0.773907 0.499161 0.275470 0.111060
C92   C     C_R   0.726092 0.000211 0.724923 0.111697
C93   C     C_2   0.493665 0.502283 0.178530 -0.337245
C94   C     C_R   0.273911 0.999159 0.275473 0.111476
C95   C     C_R   0.500090 0.413711 0.500163 0.863613
C96   C     C_R   0.000080 0.913713 0.500122 0.863703
C97   C     C_R   0.499636 0.501618 0.618648 0.937342
C98   C     C_R   0.500364 0.498379 0.381351 0.937361
C99   C     C_R   0.999636 0.001618 0.618648 0.937469
C100  C     C_R   0.000364 0.998379 0.381352 0.937183
C101  C     C_R   0.499920 0.586288 0.499878 0.863679
C102  C     C_R   0.999910 0.086289 0.499837 0.863503
C103  C     C_R   0.999951 0.413608 0.499692 0.872583
C104  C     C_2   0.006338 0.997717 0.821474 -0.339237
C105  C     C_R   0.500001 0.913608 0.499749 0.872541
C106  C     C_R   0.086395 0.500008 0.586152 0.872740
C107  C     C_R   0.913605 0.499961 0.413855 0.872526
C108  C     C_R   0.586394 0.000008 0.586151 0.872466
C109  C     C_R   0.413606 0.999961 0.413856 0.872424
C110  C     C_R   0.999999 0.586407 0.500251 0.872687
C111  C     C_R   0.500049 0.086405 0.500308 0.872364
C112  C     C_R   0.462536 0.297115 0.481964 -0.178658
C113  C     C_R   0.538817 0.296708 0.522341 -0.178306
C114  C     C_R   0.962237 0.796891 0.445542 -0.178784
C115  C     C_2   0.993658 0.002282 0.178523 -0.336528
C116  C     C_R   0.038089 0.796947 0.557030 -0.178252
C117  C     C_R   0.999158 0.273909 0.497595 0.111205
C118  C     C_R   0.499792 0.773909 0.498622 0.111661
C119  C     C_R   0.462195 0.342902 0.480690 -0.193837
C120  C     C_R   0.538693 0.342502 0.522021 -0.190643
C121  C     C_R   0.962147 0.842669 0.445326 -0.193903
C122  C     C_R   0.038219 0.842746 0.556318 -0.190712
C123  C     C_R   0.500314 0.365755 0.500886 -0.027807
C124  C     C_R   0.000192 0.865758 0.500560 -0.027117
C125  C     C_R   0.500780 0.274017 0.502481 0.110982
C126  C     C_R   0.296883 0.462237 0.813578 -0.178877
C127  C     C_R   0.000159 0.774024 0.501466 0.111232
C128  C     C_R   0.012352 0.703356 0.566551 -0.177574
C129  C     C_R   0.988001 0.703058 0.435930 -0.177927
C130  C     C_R   0.513419 0.202943 0.461567 -0.177672
C131  C     C_R   0.488078 0.203455 0.542717 -0.177289
C132  C     C_R   0.011983 0.657543 0.566104 -0.193195
C133  C     C_R   0.988149 0.657282 0.435706 -0.192864
C134  C     C_R   0.512912 0.157162 0.460531 -0.192796
C135  C     C_R   0.488105 0.157644 0.542511 -0.193401
C136  C     C_R   0.000012 0.634362 0.500723 -0.032362
H1    H     H_    0.558013 0.540754 0.751256 0.163760
H2    H     H_    0.860356 0.477580 0.266161 0.153916
H3    H     H_    0.639852 0.978477 0.733799 0.152820
H4    H     H_    0.360364 0.977395 0.266251 0.152675
H5    H     H_    0.220508 0.478800 0.813869 0.133042
H6    H     H_    0.779675 0.477134 0.186408 0.133363
H7    H     H_    0.720503 0.978614 0.813782 0.132674
H8    H     H_    0.279682 0.976954 0.186493 0.132904
H9    H     H_    0.021284 0.278749 0.424993 0.132966
H10   H     H_    0.977138 0.279667 0.570412 0.133172
H11   H     H_    0.478202 0.778940 0.382646 0.132776
H12   H     H_    0.441942 0.459312 0.248691 0.165281
H13   H     H_    0.521372 0.779489 0.614653 0.132706
H14   H     H_    0.432914 0.279675 0.466097 0.132943
H15   H     H_    0.568574 0.278953 0.538586 0.133454
H16   H     H_    0.932710 0.779283 0.402608 0.132813
H17   H     H_    0.067619 0.779366 0.600200 0.133452
H18   H     H_    0.432335 0.360375 0.464557 0.153930
H19   H     H_    0.568377 0.359656 0.537555 0.154608
H20   H     H_    0.932539 0.859937 0.401701 0.152827
H21   H     H_    0.067817 0.860102 0.599589 0.154768
H22   H     H_    0.021614 0.721078 0.617254 0.133000
H23   H     H_    0.058037 0.040715 0.751286 0.165808
H24   H     H_    0.978811 0.720527 0.385450 0.132939
H25   H     H_    0.523079 0.220337 0.429899 0.132996
H26   H     H_    0.478505 0.221258 0.574704 0.132795
H27   H     H_    0.021395 0.640313 0.616883 0.153582
H28   H     H_    0.978674 0.639878 0.384645 0.153951
H29   H     H_    0.522643 0.139655 0.428544 0.152704
H30   H     H_    0.478180 0.140501 0.573984 0.152208
H31   H     H_    0.021601 0.359506 0.425702 0.153261
H32   H     H_    0.977580 0.360348 0.571778 0.153816
H33   H     H_    0.478418 0.859707 0.383016 0.152408
H34   H     H_    0.941966 0.959272 0.248721 0.163247
H35   H     H_    0.521513 0.860140 0.615457 0.152817
H36   H     H_    0.567326 0.720721 0.597280 0.132697
H37   H     H_    0.432343 0.720642 0.399915 0.133352
H38   H     H_    0.931476 0.221053 0.461670 0.133547
H39   H     H_    0.067037 0.220326 0.533648 0.133016
H40   H     H_    0.467207 0.496254 0.674642 0.156726
H41   H     H_    0.532804 0.503699 0.325369 0.157239
H42   H     H_    0.967199 0.996278 0.674633 0.157484
H43   H     H_    0.032796 0.003724 0.325361 0.156499
H44   H     H_    0.567497 0.640068 0.598187 0.152924
H45   H     H_    0.140314 0.521417 0.544833 0.153639
H46   H     H_    0.432146 0.639907 0.400523 0.154886
H47   H     H_    0.931671 0.140348 0.462692 0.154452
H48   H     H_    0.067618 0.139623 0.535193 0.153773
H49   H     H_    0.540628 0.558115 0.847342 0.165202
H50   H     H_    0.459306 0.441931 0.152585 0.163874
H51   H     H_    0.040654 0.058094 0.847369 0.165817
H52   H     H_    0.959333 0.941909 0.152614 0.163259
H53   H     H_    0.496323 0.467211 0.788903 0.157235
H54   H     H_    0.503723 0.532778 0.211144 0.156795
H55   H     H_    0.996301 0.967215 0.788881 0.157506
H56   H     H_    0.859494 0.521617 0.455379 0.153356
H57   H     H_    0.003700 0.032781 0.211122 0.156520
H58   H     H_    0.279274 0.432708 0.809375 0.132963
H59   H     H_    0.721057 0.431476 0.190885 0.133743
H60   H     H_    0.779275 0.932668 0.809211 0.132626
H61   H     H_    0.221056 0.931438 0.191041 0.133365
H62   H     H_    0.359929 0.432535 0.890763 0.152986
H63   H     H_    0.640352 0.431670 0.109352 0.154684
H64   H     H_    0.859927 0.932496 0.890601 0.152823
H65   H     H_    0.140353 0.931634 0.109506 0.154457
H66   H     H_    0.360104 0.567822 0.828334 0.154966
H67   H     H_    0.640305 0.021607 0.544912 0.152402
H68   H     H_    0.639618 0.567619 0.172024 0.154005
H69   H     H_    0.860098 0.067862 0.828488 0.154753
H70   H     H_    0.139623 0.067655 0.171874 0.153780
H71   H     H_    0.279367 0.567626 0.746788 0.133643
H72   H     H_    0.720320 0.567040 0.253692 0.133239
H73   H     H_    0.779363 0.067666 0.746949 0.133259
H74   H     H_    0.220324 0.067077 0.253535 0.132839
H75   H     H_    0.221079 0.521633 0.625443 0.133142
H76   H     H_    0.778737 0.521294 0.375019 0.133131
H77   H     H_    0.721072 0.021818 0.625519 0.132717
H78   H     H_    0.359498 0.021798 0.455303 0.152176
H79   H     H_    0.278741 0.021470 0.374945 0.132716
H80   H     H_    0.139858 0.478668 0.733893 0.153994
O1    O     O_R   0.434530 0.536960 0.934530 -0.625104
O2    O     O_R   0.934540 0.500010 0.383460 -0.625783
O3    O     O_R   0.565460 0.000010 0.616540 -0.625715
O4    O     O_R   0.434540 0.000010 0.383460 -0.625625
O5    O     O_R   0.000010 0.565480 0.448930 -0.625806
O6    O     O_R   0.999990 0.565480 0.551070 -0.625683
O7    O     O_R   0.500010 0.065480 0.448930 -0.625639
O8    O     O_R   0.499990 0.065480 0.551070 -0.625458
O9    O     O_R   0.434530 0.463040 0.934530 -0.629174
O10   O     O_R   0.565470 0.463040 0.065470 -0.624960
O11   O     O_R   0.934530 0.963040 0.934530 -0.629150
O12   O     O_R   0.565470 0.536960 0.065470 -0.629304
O13   O     O_R   0.065470 0.963040 0.065470 -0.624959
O14   O     O_R   0.500010 0.536960 0.909550 -0.616087
O15   O     O_R   0.499990 0.536960 0.090450 -0.623275
O16   O     O_R   0.000010 0.036960 0.909550 -0.616158
O17   O     O_R   0.999990 0.036960 0.090450 -0.623268
O18   O     O_R   0.500010 0.463040 0.909550 -0.623103
O19   O     O_R   0.499990 0.463040 0.090450 -0.615823
O20   O     O_R   0.000010 0.963040 0.909550 -0.623107
O21   O     O_R   0.999990 0.963040 0.090450 -0.615755
O22   O     O_R   0.536960 0.434530 0.536970 -0.624974
O23   O     O_R   0.934530 0.036960 0.934530 -0.625080
O24   O     O_R   0.463040 0.434530 0.463030 -0.629335
O25   O     O_R   0.036960 0.934530 0.536970 -0.625082
O26   O     O_R   0.963040 0.934530 0.463030 -0.629150
O27   O     O_R   0.536950 0.500000 0.627420 -0.615807
O28   O     O_R   0.463050 0.500000 0.372580 -0.616105
O29   O     O_R   0.036950 0.000000 0.627420 -0.616156
O30   O     O_R   0.963050 0.000000 0.372580 -0.615748
O31   O     O_R   0.463030 0.500000 0.553490 -0.623280
O32   O     O_R   0.536970 0.500000 0.446510 -0.623101
O33   O     O_R   0.963030 0.000000 0.553490 -0.623104
O34   O     O_R   0.065470 0.036960 0.065470 -0.629324
O35   O     O_R   0.036970 0.000000 0.446510 -0.623270
O36   O     O_R   0.536960 0.565470 0.536960 -0.629178
O37   O     O_R   0.463040 0.565470 0.463040 -0.625106
O38   O     O_R   0.036960 0.065470 0.536960 -0.629321
O39   O     O_R   0.963040 0.065470 0.463040 -0.624943
O40   O     O_R   0.000000 0.434540 0.448940 -0.625670
O41   O     O_R   0.000000 0.434540 0.551060 -0.625789
O42   O     O_R   0.500000 0.934540 0.448940 -0.625688
O43   O     O_R   0.500000 0.934540 0.551060 -0.625728
O44   O     O_R   0.065470 0.500010 0.514410 -0.625684
O45   O     O_R   0.934530 0.500010 0.485590 -0.625674
O46   O     O_R   0.565470 0.000010 0.514410 -0.625684
O47   O     O_R   0.434530 0.000010 0.485590 -0.625451
O48   O     O_R   0.065460 0.500010 0.616540 -0.625807
Zn1   Zn    Zn3+2 0.500000 0.549350 0.000000 0.945382
Zn2   Zn    Zn3+2 0.999990 0.500010 0.568190 0.942563
Zn3   Zn    Zn3+2 0.500010 0.000010 0.431810 0.942977
Zn4   Zn    Zn3+2 0.499990 0.000010 0.568190 0.943086
Zn5   Zn    Zn3+2 0.000000 0.049350 0.000000 0.945364
Zn6   Zn    Zn3+2 0.500000 0.450640 0.000000 0.945623
Zn7   Zn    Zn3+2 1.000000 0.950640 0.000000 0.945673
Zn8   Zn    Zn3+2 0.549360 0.500000 0.549360 0.945618
Zn9   Zn    Zn3+2 0.450640 0.500000 0.450640 0.945333
Zn10  Zn    Zn3+2 0.049360 0.000000 0.549360 0.945371
Zn11  Zn    Zn3+2 0.950640 0.000000 0.450640 0.945710
Zn12  Zn    Zn3+2 0.000010 0.500010 0.431810 0.942576

loop_
_geom_bond_atom_site_label_1
_geom_bond_atom_site_label_2
_ccdc_geom_bond_type
O25   Zn10  S    
C22   C117  S    
C83   C87   A    
O45   Zn2   S    
C17   C26   A    
C105  O42   A    
C56   C61   A    
C121  H20   S    
C55   C59   A    
C103  O41   A    
C113  H15   S    
C67   H79   S    
O35   Zn10  S    
C114  H16   S    
C74   C83   A    
C99   O33   A    
C100  O35   A    
C119  C123  A    
O14   Zn1   S    
C42   C115  D    
C20   C118  A    
O24   Zn9   S    
O38   Zn10  S    
C25   C105  S    
C57   C62   A    
C47   C49   S    
C6    H36   S    
C93   H54   S    
C20   H13   S    
C25   C28   A    
C7    C11   A    
C37   H42   S    
C63   C94   S    
C77   O14   A    
C50   C54   A    
C116  C122  A    
C33   C42   S    
C64   C68   A    
O30   Zn11  S    
C85   C89   A    
O26   Zn11  S    
C102  O39   A    
C87   C91   A    
C10   C15   A    
C97   O31   A    
O17   Zn5   S    
O6    Zn2   S    
C43   H63   S    
C8    H38   S    
C9    C22   A    
C96   C124  S    
C81   H80   S    
C113  C125  A    
C110  C136  S    
C33   H34   S    
C78   C93   S    
C42   H52   S    
C113  C120  A    
O2    Zn12  S    
C70   H67   S    
C34   C97   S    
C31   C40   S    
C41   H51   S    
O5    Zn12  S    
C2    H59   S    
C23   C26   A    
C89   C94   A    
O27   Zn8   S    
C77   O18   A    
C121  C124  A    
C77   C82   S    
O43   Zn4   S    
C36   C98   S    
C74   C107  S    
C108  O3    A    
C11   C15   A    
C122  H21   S    
C23   C103  S    
C13   C62   A    
C12   C16   A    
C84   H3    S    
C3    C111  S    
C76   C109  S    
C65   H76   S    
C13   H60   S    
C62   C92   S    
C67   C94   A    
C53   H69   S    
C32   C41   S    
O33   Zn11  S    
C64   H75   S    
C108  O46   A    
C23   C27   A    
C109  O47   A    
C40   C93   D    
C71   O34   A    
O7    Zn3   S    
C81   C86   A    
C51   H66   S    
C8    C12   A    
C27   H32   S    
C95   O24   A    
C32   H23   S    
C115  H57   S    
C75   C108  S    
C105  O43   A    
C30   H1    S    
C87   H6    S    
C106  O44   A    
C103  O40   A    
C114  C121  A    
C48   C53   A    
C11   H46   S    
O42   Zn3   S    
C128  C132  A    
C69   H56   S    
C73   C81   A    
C2    C61   A    
C97   O27   A    
O18   Zn6   S    
C20   C29   A    
C58   H74   S    
C99   O29   A    
C25   C29   A    
O47   Zn4   S    
O9    Zn6   S    
C57   H73   S    
C68   H45   S    
C30   C34   D    
C128  H22   S    
O3    Zn4   S    
C88   C92   A    
C64   C90   A    
C67   C72   A    
C34   H40   S    
C19   C118  A    
C38   C100  S    
C86   C90   A    
C110  O5    A    
O46   Zn3   S    
C60   O23   A    
C4    C128  A    
C78   O19   A    
C66   C92   A    
C131  H26   S    
C54   H70   S    
C78   O15   A    
C7    C21   A    
C104  H55   S    
O12   Zn1   S    
C46   C51   A    
C116  C127  A    
O20   Zn7   S    
C19   H11   S    
O39   Zn11  S    
O29   Zn10  S    
C52   H68   S    
C95   O22   A    
O8    Zn4   S    
C80   O21   A    
O41   Zn2   S    
C35   C126  A    
C101  O37   A    
C9    C14   A    
C98   O32   A    
C21   C118  S    
C26   H31   S    
C133  C136  A    
C107  O2    A    
C75   C84   A    
C126  H58   S    
C8    C22   A    
O32   Zn8   S    
C80   C115  S    
C2    C43   A    
C132  C136  A    
C106  O48   A    
C112  C125  A    
C134  H29   S    
O19   Zn6   S    
C69   C74   A    
C107  O45   A    
C50   C71   S    
C111  O7    A    
C32   C37   D    
C15   C101  S    
C49   O12   A    
O22   Zn8   S    
C19   C28   A    
C18   C117  A    
C96   O26   A    
C116  H17   S    
C47   C52   A    
C61   C91   S    
C129  C133  A    
C31   H12   S    
C130  H25   S    
O11   Zn7   S    
C5    C130  A    
C5    C125  S    
C24   H61   S    
C44   H64   S    
C24   C63   A    
O1    Zn1   S    
O15   Zn1   S    
C82   H53   S    
C17   H9    S    
C14   C16   A    
C79   C104  S    
C101  O36   A    
O31   Zn9   S    
C24   C45   A    
C122  C124  A    
O21   Zn7   S    
C133  H28   S    
C37   C99   S    
O44   Zn12  S    
C54   C58   A    
C1    O9    A    
C58   C63   A    
C65   C91   A    
C59   C126  A    
C53   C57   A    
C38   H43   S    
C88   H7    S    
C4    C127  S    
C112  H14   S    
C29   H35   S    
C31   C36   D    
C98   O28   A    
C80   O17   A    
O36   Zn8   S    
C18   C27   A    
C84   C88   A    
C39   C82   D    
C18   H10   S    
C79   O20   A    
C112  C119  A    
C14   H48   S    
C120  C123  A    
C12   H47   S    
C4    C129  A    
C17   C117  A    
C119  H18   S    
C89   H8    S    
C55   H71   S    
C35   C46   A    
C131  C135  A    
C33   C38   D    
C41   C104  D    
C3    C134  A    
C10   H44   S    
C60   O11   A    
C66   H77   S    
C68   C73   A    
C132  H27   S    
C49   O10   A    
C56   H72   S    
C109  O4    A    
O37   Zn9   S    
C48   C60   S    
C16   C102  S    
C114  C127  A    
C6    C21   A    
C73   C106  S    
C66   C70   A    
C45   C50   A    
C72   C76   A    
C65   C69   A    
C7    H37   S    
C1    C46   S    
C85   H4    S    
C96   O25   A    
C135  H30   S    
C30   C39   S    
C9    H39   S    
C71   O13   A    
C3    C135  A    
C111  O8    A    
C13   C44   A    
C72   H78   S    
C130  C134  A    
O23   Zn5   S    
C79   O16   A    
C83   H2    S    
C100  O30   A    
C6    C10   A    
C36   H41   S    
C39   H49   S    
C52   C56   A    
C28   H33   S    
C5    C131  A    
C40   H50   S    
C120  H19   S    
C35   H62   S    
O48   Zn2   S    
C45   H65   S    
C70   C75   A    
C51   C55   A    
O16   Zn5   S    
O40   Zn12  S    
C1    O1    A    
O34   Zn5   S    
C102  O38   A    
O28   Zn9   S    
O4    Zn3   S    
C43   C47   A    
C76   C85   A    
C59   C90   S    
C129  H24   S    
O10   Zn6   S    
C44   C48   A    
C86   H5    S    
C95   C123  S    
O13   Zn7   S    
C110  O6    A    
