data_mof_unit_pretest_1540.cif
_audit_creation_date              2012-12-10T19:44:55-0500
_audit_creation_method            fapswitch 2.2
_symmetry_space_group_name_H-M    P1
_symmetry_Int_Tables_number       1
_space_group_crystal_system       triclinic
_cell_length_a                    18.618622
_cell_length_b                    18.748642
_cell_length_c                    18.698909
_cell_angle_alpha                 109.40549
_cell_angle_beta                  109.265461
_cell_angle_gamma                 109.200468
_cell_volume                      5058.05167806

loop_
_atom_site_label
_atom_site_type_symbol
_atom_type_description
_atom_site_fract_x
_atom_site_fract_y
_atom_site_fract_z
_atom_type_partial_charge
C1    C     C_R   0.120343 0.000357 0.619829 0.877387
C2    C     C_R   0.508050 0.469732 0.811253 -0.144234
C3    C     C_R   0.508084 0.548468 0.830350 -0.106467
C4    C     C_R   0.119115 0.119841 0.498636 0.866987
C5    C     C_R   0.446541 0.553575 0.767787 -0.128235
C6    C     C_R   0.385707 0.480357 0.685682 -0.146937
C7    C     C_R   0.385289 0.401130 0.666118 0.135519
C8    C     C_R   0.162789 0.939417 0.711091 0.093047
C9    C     C_R   0.186148 0.001700 0.686334 -0.062825
C10   C     C_R   0.270387 0.073702 0.736459 -0.223684
C11   C     C_R   0.334454 0.075085 0.802502 -0.215465
C12   C     C_R   0.963046 0.975316 0.166523 -0.123776
C13   C     C_R   0.313006 0.005015 0.818689 -0.109612
C14   C     C_R   0.225692 0.940965 0.776688 0.148808
C15   C     C_3   0.185045 0.844236 0.730360 -0.463382
C16   C     C_R   0.879959 0.000468 0.380165 0.881058
C17   C     C_3   0.115665 0.842720 0.657734 -0.507927
C18   C     C_R   0.741579 0.747311 0.425751 0.135586
C19   C     C_R   0.815494 0.815986 0.502176 -0.094930
C20   C     C_R   0.825005 0.820907 0.581791 -0.224242
C21   C     C_R   0.760624 0.755675 0.581687 -0.215608
C22   C     C_R   0.685878 0.687380 0.502126 -0.100803
C23   C     C_R   0.244936 0.244157 0.421459 -0.248184
C24   C     C_R   0.678606 0.686577 0.425826 0.137820
C25   C     C_3   0.623335 0.637246 0.329132 -0.489716
C26   C     C_3   0.695387 0.707663 0.329166 -0.504617
C27   C     C_R   0.740049 0.922177 0.246004 0.116297
C28   C     C_R   0.880081 0.880423 0.500337 0.883093
C29   C     C_R   0.812045 0.000414 0.316132 -0.101322
C30   C     C_R   0.814432 0.079274 0.327878 -0.245787
C31   C     C_R   0.751021 0.079446 0.262748 -0.192523
C32   C     C_R   0.684457 0.000549 0.187803 -0.104134
C33   C     C_R   0.676105 0.922269 0.182908 0.135434
C34   C     C_R   0.313621 0.315411 0.501688 -0.074907
C35   C     C_3   0.664933 0.845881 0.111346 -0.529617
C36   C     C_3   0.735633 0.845808 0.181153 -0.473739
C37   C     C_R   0.500669 0.621299 0.620237 0.883728
C38   C     C_R   0.379845 0.380821 0.501035 0.875851
C39   C     C_R   0.499973 0.379486 0.380119 0.913872
C40   C     C_R   0.046562 0.984942 0.190357 -0.138850
C41   C     C_R   0.620027 0.620237 0.500242 0.884962
C42   C     C_R   0.499430 0.119464 0.119433 0.961588
C43   C     C_R   0.379628 0.000646 0.880266 0.872495
C44   C     C_R   0.500738 0.880478 0.880458 0.878495
C45   C     C_R   0.318116 0.322869 0.580611 -0.001557
C46   C     C_R   0.619947 0.999451 0.119676 0.904388
C47   C     C_R   0.440990 0.716335 0.664308 0.152446
C48   C     C_R   0.505674 0.693022 0.685711 -0.118321
C49   C     C_R   0.576761 0.741849 0.771170 -0.218077
C50   C     C_R   0.575529 0.804603 0.835875 -0.240189
C51   C     C_R   0.502847 0.817066 0.814870 -0.072237
C52   C     C_R   0.117075 0.051146 0.272571 -0.143832
C53   C     C_R   0.439724 0.777929 0.728313 0.110137
C54   C     C_3   0.342468 0.729685 0.686107 -0.524126
C55   C     C_3   0.343694 0.661456 0.615229 -0.466815
C56   C     C_R   0.253340 0.256875 0.577554 -0.246902
C57   C     C_R   0.460645 0.292038 0.229103 0.143964
C58   C     C_R   0.499364 0.311880 0.315270 -0.173462
C59   C     C_R   0.539293 0.264358 0.337446 -0.335246
C60   C     C_R   0.538314 0.198129 0.272352 0.446077
C61   C     C_R   0.500456 0.183538 0.186495 -0.182645
C62   C     C_R   0.462131 0.231278 0.167725 0.036085
C63   C     C_3   0.416839 0.246662 0.097181 -0.498198
C64   C     C_R   0.104120 0.107514 0.331931 0.132940
C65   C     C_3   0.415478 0.317094 0.167822 -0.436439
C66   C     C_R   0.020036 0.097592 0.307487 -0.125726
C67   C     C_R   0.184450 0.185632 0.497349 -0.074838
C68   C     C_R   0.949911 0.031890 0.224833 -0.130180
C69   C     C_3   0.540307 0.103024 0.323215 0.099972
C70   C     C_3   0.575523 0.040959 0.326961 -0.800277
C71   C     C_R   0.179127 0.178848 0.418239 -0.000458
C72   C     C_R   0.446422 0.395988 0.729590 -0.141114
H1    H     H_    0.908584 0.924298 0.102738 0.120606
H2    H     H_    0.049704 0.812846 0.650967 0.203429
H3    H     H_    0.882185 0.873687 0.643057 0.156510
H4    H     H_    0.056738 0.941332 0.144979 0.126191
H5    H     H_    0.768620 0.758999 0.642989 0.159313
H6    H     H_    0.617869 0.572157 0.300067 0.197152
H7    H     H_    0.560507 0.638023 0.307160 0.210569
H8    H     H_    0.731153 0.683148 0.299615 0.210601
H9    H     H_    0.674417 0.749570 0.307839 0.198034
H10   H     H_    0.867635 0.140522 0.384597 0.164538
H11   H     H_    0.754841 0.140535 0.269810 0.179549
H12   H     H_    0.555396 0.605346 0.893762 0.124361
H13   H     H_    0.599536 0.787887 0.078792 0.209482
H14   H     H_    0.684808 0.862360 0.066497 0.189714
H15   H     H_    0.711007 0.787822 0.188976 0.197996
H16   H     H_    0.181592 0.058288 0.290158 0.122157
H17   H     H_    0.796493 0.862035 0.176684 0.215473
H18   H     H_    0.630779 0.728933 0.788716 0.170492
H19   H     H_    0.628669 0.840102 0.902421 0.138261
H20   H     H_    0.319198 0.705842 0.725627 0.214954
H21   H     H_    0.312580 0.765456 0.662535 0.198686
H22   H     H_    0.321020 0.597860 0.613410 0.191698
H23   H     H_    0.445631 0.614109 0.783050 0.146709
H24   H     H_    0.314246 0.657885 0.550996 0.208157
H25   H     H_    0.571773 0.279055 0.404441 0.178754
H26   H     H_    0.459649 0.273155 0.072322 0.208552
H27   H     H_    0.009091 0.141215 0.352031 0.106895
H28   H     H_    0.351009 0.190050 0.046582 0.202749
H29   H     H_    0.457701 0.384254 0.183834 0.194294
H30   H     H_    0.348761 0.301508 0.157864 0.202462
H31   H     H_    0.885399 0.024937 0.205749 0.145045
H32   H     H_    0.242212 0.240037 0.361252 0.152915
H33   H     H_    0.255903 0.261595 0.637884 0.153897
H34   H     H_    0.338045 0.484801 0.637766 0.105963
H35   H     H_    0.446410 0.335107 0.715703 0.122037
H36   H     H_    0.555414 0.465709 0.859921 0.126026
H37   H     H_    0.468105 0.063488 0.278821 0.137484
H38   H     H_    0.554675 0.144743 0.390028 0.137518
H39   H     H_    0.647578 0.078035 0.370179 0.263182
H40   H     H_    0.545287 0.001876 0.352865 0.199064
H41   H     H_    0.559688 0.996296 0.260649 0.263610
H42   H     H_    0.287181 0.126362 0.722032 0.139753
H43   H     H_    0.400691 0.128749 0.838177 0.167608
H44   H     H_    0.227197 0.821817 0.710640 0.194582
H45   H     H_    0.159120 0.815231 0.765527 0.204727
H46   H     H_    0.117580 0.819566 0.595727 0.217139
O1    O     O_R   0.091630 0.948280 0.539910 -0.623290
O2    O     O_R   0.448290 0.040010 0.091660 -0.626255
O3    O     O_R   0.460120 0.051750 0.908410 -0.629169
O4    O     O_R   0.091590 0.051710 0.643320 -0.623447
O5    O     O_R   0.356670 0.948360 0.908460 -0.625679
O6    O     O_R   0.551710 0.960090 0.908440 -0.618747
O7    O     O_R   0.448260 0.856700 0.908490 -0.628950
O8    O     O_R   0.643330 0.051740 0.091640 -0.624510
O9    O     O_R   0.539880 0.948350 0.091690 -0.624261
O10   O     O_R   0.091640 0.039900 0.448300 -0.611552
O11   O     O_R   0.091600 0.143340 0.551710 -0.627962
O12   O     O_R   0.551690 0.591610 0.643360 -0.620279
O13   O     O_R   0.908410 0.948290 0.356680 -0.618375
O14   O     O_R   0.908370 0.051720 0.460090 -0.623911
O15   O     O_R   0.908400 0.856660 0.448290 -0.624525
O16   O     O_R   0.908360 0.960100 0.551700 -0.621330
O17   O     O_R   0.448260 0.591640 0.539950 -0.623186
O18   O     O_3   0.581525 0.154072 0.292835 -0.615025
O19   O     O_R   0.356650 0.408410 0.448330 -0.627364
O20   O     O_R   0.460080 0.408380 0.551740 -0.613588
O21   O     O_R   0.448280 0.408420 0.356720 -0.627564
O22   O     O_R   0.551710 0.408390 0.460130 -0.625946
O23   O     O_R   0.539890 0.591650 0.448340 -0.623576
O24   O     O_R   0.643320 0.591620 0.551750 -0.626287
O25   O     O_R   0.551740 0.143400 0.091610 -0.623081
Zn1   Zn    Zn3+2 0.000030 0.930940 0.430950 0.953046
Zn2   Zn    Zn3+2 0.999970 0.069060 0.569050 0.951710
Zn3   Zn    Zn3+2 0.430920 0.500040 0.430990 0.939481
Zn4   Zn    Zn3+2 0.569050 0.499990 0.569090 0.953581
Zn5   Zn    Zn3+2 0.569070 0.069080 0.000020 0.954483
Zn6   Zn    Zn3+2 0.430930 0.931020 0.000080 0.940796

loop_
_geom_bond_atom_site_label_1
_geom_bond_atom_site_label_2
_ccdc_geom_bond_type
C36   H17   S    
C66   C68   A    
C63   C65   S    
O21   Zn3   S    
C30   H10   S    
C27   C29   A    
C11   C13   A    
C35   C36   S    
C18   C26   S    
C68   H31   S    
C65   H29   S    
C49   H18   S    
O5    Zn6   S    
C57   C62   A    
C53   C54   S    
C27   C33   A    
C41   O23   A    
C12   C68   A    
O2    Zn6   S    
C63   H28   S    
C28   O16   A    
O14   Zn2   S    
C7    C45   S    
C63   H26   S    
C30   C31   A    
C35   H14   S    
C64   C71   S    
C22   C41   S    
C70   H39   S    
C31   H11   S    
C37   O12   A    
C18   C19   A    
C1    O1    A    
O4    Zn2   S    
C28   O15   A    
C16   O13   A    
C1    O4    A    
C54   H21   S    
C39   O22   A    
C69   H37   S    
C23   H32   S    
C45   C56   A    
C8    C9    A    
C67   C71   A    
C37   O17   A    
C13   C14   A    
C29   C30   A    
C11   H43   S    
C9    C10   A    
C60   O18   S    
O11   Zn2   S    
C10   H42   S    
C47   C53   A    
C25   C26   S    
C23   C34   A    
C59   C60   A    
C36   H15   S    
C34   C38   S    
C21   C22   A    
O1    Zn1   S    
C61   C62   A    
C65   H30   S    
C55   H22   S    
C2    C72   A    
O22   Zn4   S    
C70   H40   S    
C5    H23   S    
C70   H41   S    
C38   O20   A    
O25   Zn5   S    
C39   O21   A    
C44   O7    A    
C4    O10   A    
C25   H6    S    
C23   C71   A    
O19   Zn3   S    
C52   H16   S    
C1    C9    S    
C24   C25   S    
C52   C64   A    
C7    C72   A    
O8    Zn5   S    
C16   C29   S    
C40   C52   A    
C39   C58   S    
C44   O6    A    
C26   H8    S    
C40   H4    S    
C20   H3    S    
C60   C61   A    
C51   C53   A    
C64   C66   A    
C66   H27   S    
C12   C40   A    
C54   H20   S    
C62   C63   S    
O6    Zn5   S    
C69   H38   S    
C46   O9    A    
C47   C48   A    
C14   C15   S    
C72   H35   S    
O20   Zn4   S    
O17   Zn3   S    
C50   C51   A    
C6    H34   S    
O3    Zn5   S    
C34   C45   A    
C37   C48   S    
C19   C28   S    
O10   Zn1   S    
C42   C61   S    
C6    C7    A    
O7    Zn6   S    
C17   H46   S    
O23   Zn3   S    
C44   C51   S    
C48   C49   A    
C26   H9    S    
C17   H2    S    
C59   H25   S    
C18   C24   A    
C43   O5    A    
C13   C43   S    
C47   C55   S    
C42   O25   A    
C15   C17   S    
O16   Zn2   S    
C43   O3    A    
C54   C55   S    
O15   Zn1   S    
C8    C14   A    
O12   Zn4   S    
C25   H7    S    
C32   C46   S    
O24   Zn4   S    
C46   O8    A    
C31   C32   A    
C57   C65   S    
C55   H24   S    
C3    C5    A    
C4    C67   S    
C4    O11   A    
C27   C36   S    
C69   O18   S    
C56   C67   A    
C8    C17   S    
C32   C33   A    
C19   C20   A    
C2    C3    A    
C58   C59   A    
C41   O24   A    
O9    Zn6   S    
C35   H13   S    
C42   O2    A    
C57   C58   A    
C5    C6    A    
C2    H36   S    
C33   C35   S    
C38   O19   A    
C22   C24   A    
C69   C70   S    
C16   O14   A    
C56   H33   S    
C10   C11   A    
C15   H45   S    
C50   H19   S    
C20   C21   A    
C49   C50   A    
C21   H5    S    
C3    H12   S    
C15   H44   S    
C12   H1    S    
O13   Zn1   S    
