data_mof_unit_pretest_1258.cif
_audit_creation_date              2012-12-10T17:43:22-0500
_audit_creation_method            fapswitch 2.2
_symmetry_space_group_name_H-M    P1
_symmetry_Int_Tables_number       1
_space_group_crystal_system       triclinic
_cell_length_a                    14.956892
_cell_length_b                    13.89157
_cell_length_c                    10.696373
_cell_angle_alpha                 89.319323
_cell_angle_beta                  87.187269
_cell_angle_gamma                 90.21945
_cell_volume                      2219.58005

loop_
_atom_site_label
_atom_site_type_symbol
_atom_type_description
_atom_site_fract_x
_atom_site_fract_y
_atom_site_fract_z
_atom_type_partial_charge
C1    C     C_R   0.329220 0.499781 0.500859 0.801553
C2    C     C_R   0.670841 0.499964 0.499512 0.787279
C3    C     C_R   0.953296 0.496704 0.498001 0.015588
C4    C     C_R   0.046992 0.497094 0.499887 0.009296
C5    C     C_R   0.910655 0.525532 0.387932 0.052003
C6    C     C_R   0.089676 0.467034 0.609188 0.055498
C7    C     C_R   0.944324 0.439088 0.714760 -0.251253
C8    C     C_R   0.056288 0.556249 0.284150 -0.243747
C9    C     C_R   0.038121 0.438933 0.717865 0.248621
C10   C     C_R   0.963189 0.554280 0.279978 0.254036
C11   C     C_R   0.432513 0.793100 0.564849 0.337230
C12   C     C_R   0.569670 0.206139 0.441204 0.330360
C13   C     C_R   0.567306 0.795346 0.435809 0.336537
C14   C     C_R   0.429913 0.205009 0.558327 0.339406
C15   C     C_R   0.564986 0.898065 0.428604 -0.047038
C16   C     C_R   0.430633 0.102251 0.563747 -0.062219
C17   C     C_R   0.432816 0.896034 0.568697 -0.050317
C18   C     C_R   0.567231 0.103821 0.433264 -0.058825
C19   C     C_R   0.498468 0.948404 0.497846 0.047953
C20   C     C_R   0.498628 0.051604 0.498025 0.049106
C21   C     C_R   0.629362 0.951993 0.356628 -0.199257
C22   C     C_R   0.365450 0.048755 0.634483 -0.197053
C23   C     C_R   0.368723 0.948297 0.640882 -0.193342
C24   C     C_R   0.632005 0.052332 0.361782 -0.190318
C25   C     C_R   0.501903 0.500652 0.259666 0.799035
C26   C     C_R   0.498364 0.499298 0.740292 0.785018
C27   C     C_3   0.497689 0.590547 0.036457 0.298780
C28   C     C_3   0.502996 0.408611 0.963376 0.299481
C29   C     C_3   0.570672 0.546618 0.950044 0.246215
C30   C     C_3   0.429777 0.452692 0.049859 0.267007
C31   C     C_3   0.423102 0.542443 0.963746 -0.308762
C32   C     C_3   0.577533 0.456826 0.035990 -0.346171
C33   C     C_3   0.497838 0.497762 0.876791 -0.185862
C34   C     C_3   0.502783 0.501810 0.123091 -0.180228
C35   C     C_R   0.816897 0.526557 0.390445 -0.273408
C36   C     C_R   0.183384 0.467379 0.607421 -0.240435
C37   C     C_R   0.767259 0.499053 0.498818 -0.033753
C38   C     C_R   0.232963 0.499116 0.500936 -0.053508
C39   C     C_R   0.809086 0.468112 0.605521 -0.234369
C40   C     C_R   0.191141 0.530511 0.394572 -0.245700
C41   C     C_R   0.902153 0.467619 0.606479 0.081044
C42   C     C_R   0.098240 0.528288 0.392490 0.076787
Cu1   Cu    Cu3+1 0.500000 0.597420 0.500000 0.975710
Cu2   Cu    Cu3+1 0.500000 0.402580 0.500000 0.973237
H1    H     H_    0.679474 0.917516 0.296460 0.141273
H2    H     H_    0.312275 0.083611 0.688527 0.154426
H3    H     H_    0.320325 0.912698 0.703967 0.141048
H4    H     H_    0.684954 0.088767 0.307488 0.147764
N1    N     N_R   0.500000 0.743810 0.500000 -0.206783
N2    N     N_R   0.500000 0.256190 0.500000 -0.202232
O1    O     O_R   0.370260 0.582280 0.500030 -0.551700
O2    O     O_R   0.629740 0.417720 0.499970 -0.550297
O3    O     O_R   0.629740 0.582280 0.499970 -0.550377
O4    O     O_R   0.370260 0.417720 0.500030 -0.548126
O5    O     O_R   0.499980 0.582260 0.316850 -0.575192
O6    O     O_R   0.500020 0.417740 0.683150 -0.581103
O7    O     O_R   0.500020 0.582260 0.683150 -0.559052
O8    O     O_R   0.499980 0.417740 0.316850 -0.564707
H5    H     H_    0.360526 0.575983 0.932847 0.151299
H6    H     H_    0.640642 0.423086 0.063862 0.149626
N3    N     N_2   0.495764 0.689100 0.079082 -0.407169
H7    H     H_    0.547535 0.705938 0.134979 0.250204
C43   C     C_3   0.481639 0.760946 0.983330 -0.669307
H8    H     H_    0.478393 0.833294 0.026293 0.217520
H9    H     H_    0.417346 0.747450 0.938895 0.220354
H10   H     H_    0.537511 0.760353 0.910998 0.249474
N4    N     N_2   0.505821 0.311060 0.917050 -0.428084
H11   H     H_    0.551875 0.301902 0.843360 0.268337
C44   C     C_3   0.510063 0.234702 0.009248 -0.728656
H12   H     H_    0.580453 0.224032 0.034259 0.217380
H13   H     H_    0.486210 0.166688 0.968595 0.227167
H14   H     H_    0.466986 0.250260 0.094006 0.267165
N5    N     N_2   0.645439 0.598478 0.889777 -0.413698
H15   H     H_    0.669015 0.567312 0.807704 0.241459
C45   C     C_3   0.716495 0.623097 0.970350 -0.715251
H16   H     H_    0.764890 0.671571 0.918650 0.230218
H17   H     H_    0.752023 0.556974 0.998850 0.213902
H18   H     H_    0.689810 0.660946 0.054843 0.229827
N6    N     N_2   0.354164 0.404640 0.113757 -0.413018
H19   H     H_    0.323075 0.447156 0.180990 0.239987
C46   C     C_3   0.291647 0.359199 0.034338 -0.708522
H20   H     H_    0.232669 0.332781 0.092091 0.223913
H21   H     H_    0.323402 0.296161 0.988605 0.260367
H22   H     H_    0.268460 0.411027 0.963039 0.226068
H23   H     H_    0.781155 0.549907 0.309994 0.136248
H24   H     H_    0.218595 0.444955 0.688901 0.148111
H25   H     H_    0.768904 0.445815 0.688115 0.117017
H26   H     H_    0.231183 0.555479 0.313194 0.122215
H27   H     H_    0.903644 0.416328 0.796387 0.152610
H28   H     H_    0.096074 0.578489 0.201215 0.159202
N7    N     N_2   0.081611 0.409796 0.828113 -0.446575
H29   H     H_    0.115225 0.345268 0.821009 0.243552
C47   C     C_3   0.038106 0.428108 0.949311 -0.690268
H30   H     H_    0.087816 0.421807 0.022624 0.230031
H31   H     H_    0.983984 0.374565 0.970413 0.215207
H32   H     H_    0.010497 0.502217 0.951892 0.261074
N8    N     N_2   0.924879 0.579196 0.164926 -0.444206
H33   H     H_    0.870177 0.539026 0.142113 0.239176
C48   C     C_3   0.915992 0.681415 0.142350 -0.718095
H34   H     H_    0.863688 0.711746 0.207588 0.223318
H35   H     H_    0.896573 0.694069 0.044804 0.227742
H36   H     H_    0.980670 0.719014 0.154329 0.238993
N9    N     N_2   0.362372 0.740382 0.629467 -0.376014
H37   H     H_    0.358861 0.750726 0.724818 0.217753
C49   C     C_3   0.275552 0.745569 0.574171 -0.641741
H38   H     H_    0.243017 0.816078 0.589861 0.192903
H39   H     H_    0.230717 0.689340 0.617524 0.228016
H40   H     H_    0.282093 0.733532 0.471598 0.243330
N10   N     N_2   0.648733 0.255844 0.398037 -0.379092
H41   H     H_    0.707598 0.228353 0.429673 0.230789
C50   C     C_3   0.654649 0.286433 0.268381 -0.648067
H42   H     H_    0.700741 0.239177 0.212845 0.177818
H43   H     H_    0.681664 0.360897 0.262223 0.223151
H44   H     H_    0.588198 0.285102 0.227788 0.245936
N11   N     N_2   0.642897 0.745938 0.383114 -0.380536
H45   H     H_    0.653447 0.756570 0.288021 0.207549
C51   C     C_3   0.723764 0.757767 0.451644 -0.658046
H46   H     H_    0.747454 0.833428 0.449722 0.200008
H47   H     H_    0.778052 0.713509 0.408761 0.222435
H48   H     H_    0.711894 0.734975 0.551015 0.248870
N12   N     N_2   0.352787 0.254828 0.605007 -0.375079
H49   H     H_    0.294570 0.233565 0.565120 0.233995
C52   C     C_3   0.342805 0.266715 0.739014 -0.674647
H50   H     H_    0.274714 0.243581 0.773644 0.179564
H51   H     H_    0.350682 0.343799 0.761540 0.256015
H52   H     H_    0.392211 0.223090 0.788676 0.243011

loop_
_geom_bond_atom_site_label_1
_geom_bond_atom_site_label_2
_ccdc_geom_bond_type
C43   H9    S    
C47   H30   S    
C46   H22   S    
C27   C29   S    
N5    H15   S    
C19   C20   A    
C39   H25   S    
C1    O4    A    
C9    N7    S    
C6    C9    A    
N8    H33   S    
C52   H50   S    
C39   C41   A    
C15   C19   A    
C49   H39   S    
C17   C23   A    
C18   C24   A    
C35   C37   A    
C8    C42   A    
C29   C32   S    
N10   C50   S    
C30   C31   S    
C52   H51   S    
C29   N5    S    
N11   H45   S    
C7    H27   S    
C29   C33   S    
N3    C43   S    
C31   H5    S    
C44   H13   S    
C27   N3    S    
N8    C48   S    
Cu1   O3    S    
C11   C17   A    
C50   H42   S    
Cu2   O8    S    
N11   C51   S    
C31   C33   S    
C25   C34   S    
Cu2   O2    S    
C40   C42   A    
C43   H10   S    
C47   H31   S    
C14   N12   S    
N5    C45   S    
N3    H7    S    
C12   N10   S    
C46   H21   S    
C46   H20   S    
C21   H1    S    
C27   C34   S    
C49   H40   S    
C23   H3    S    
C30   C34   S    
C27   C31   S    
N4    H11   S    
C24   H4    S    
C28   C32   S    
C28   N4    S    
C4    C6    A    
C51   H48   S    
N7    H29   S    
N6    C46   S    
Cu1   N1    S    
C52   H52   S    
C36   H24   S    
C43   H8    S    
N4    C44   S    
C32   C34   S    
C26   O7    A    
C10   N8    S    
C45   H16   S    
C11   N1    A    
N7    C47   S    
C45   H17   S    
Cu2   O6    S    
C26   C33   S    
C48   H34   S    
C16   C20   A    
C50   H43   S    
C1    O1    A    
N12   H49   S    
C13   N11   S    
C2    O2    A    
C1    C38   S    
C13   N1    A    
C30   N6    S    
Cu1   O5    S    
C22   H2    S    
C28   C33   S    
C47   H32   S    
C13   C15   A    
Cu1   Cu2   S    
N9    C49   S    
C14   C16   A    
C8    H28   S    
C25   O8    A    
C32   H6    S    
C3    C4    A    
C44   H14   S    
Cu2   N2    S    
C7    C9    A    
C3    C41   A    
C16   C22   A    
C48   H35   S    
C25   O5    A    
C3    C5    A    
C2    O3    A    
C26   O6    A    
C12   N2    A    
C49   H38   S    
C40   H26   S    
C51   H47   S    
C5    C10   A    
C37   C39   A    
C51   H46   S    
C36   C38   A    
C38   C40   A    
C35   H23   S    
C2    C37   S    
Cu1   O1    S    
C14   N2    A    
C4    C42   A    
C5    C35   A    
C28   C30   S    
C17   C19   A    
C6    C36   A    
C50   H44   S    
C18   C20   A    
C7    C41   A    
C44   H12   S    
C45   H18   S    
N12   C52   S    
Cu1   O7    S    
N6    H19   S    
Cu2   O4    S    
C15   C21   A    
C48   H36   S    
C8    C10   A    
C21   C24   A    
C12   C18   A    
N9    H37   S    
C22   C23   A    
C11   N9    S    
N10   H41   S    
