data_mof_unit_pretest_1122.cif
_audit_creation_date              2012-12-11T15:28:34-0500
_audit_creation_method            fapswitch 2.2
_symmetry_space_group_name_H-M    P1
_symmetry_Int_Tables_number       1
_space_group_crystal_system       triclinic
_cell_length_a                    6.947313
_cell_length_b                    19.65335
_cell_length_c                    23.237795
_cell_angle_alpha                 96.009876
_cell_angle_beta                  90.834535
_cell_angle_gamma                 88.975898
_cell_volume                      3154.64197094

loop_
_atom_site_label
_atom_site_type_symbol
_atom_type_description
_atom_site_fract_x
_atom_site_fract_y
_atom_site_fract_z
_atom_type_partial_charge
O1    O     O_R   0.617180 0.809390 0.808140 -0.520239
O2    O     O_R   0.382820 0.190610 0.191860 -0.521308
O3    O     O_R   0.293300 0.672410 0.795490 -0.535953
O4    O     O_R   0.706700 0.327590 0.204510 -0.535718
O5    O     O_R   0.117220 0.690610 0.691850 -0.520371
O6    O     O_R   0.882780 0.309390 0.308150 -0.523654
C1    C     C_R   0.463993 0.647802 0.805048 0.698577
C2    C     C_R   0.535979 0.352134 0.194849 0.697977
O7    O     O_R   0.287840 0.807750 0.814460 -0.524698
O8    O     O_R   0.712160 0.192250 0.185540 -0.524575
O9    O     O_R   0.111720 0.826910 0.710960 -0.525444
O10   O     O_R   0.888280 0.173090 0.289040 -0.535146
C3    C     C_R   0.456378 0.830751 0.833204 0.721101
C4    C     C_R   0.543618 0.169253 0.166792 0.719265
O11   O     O_R   0.622680 0.673080 0.789040 -0.532242
O12   O     O_R   0.377320 0.326920 0.210960 -0.532996
O13   O     O_3   0.448820 0.756130 0.716020 -0.360154
O14   O     O_3   0.551180 0.243870 0.283980 -0.359734
V1    V     V_3+5 0.176220 0.748860 0.756300 1.420746
V2    V     V_3+5 0.823780 0.251140 0.243700 1.411372
O15   O     O_R   0.781670 0.827580 0.704500 -0.541458
O16   O     O_R   0.218330 0.172420 0.295500 -0.530137
C5    C     C_R   0.949299 0.851239 0.693207 0.694943
C6    C     C_R   0.051301 0.148724 0.306801 0.698530
O17   O     O_R   0.787130 0.692240 0.685530 -0.530688
O18   O     O_R   0.212870 0.307760 0.314470 -0.525108
C7    C     C_R   0.956090 0.669273 0.666766 0.720123
C8    C     C_R   0.043820 0.330808 0.333178 0.722211
V3    V     V_3+5 0.675510 0.751130 0.743690 1.400334
V4    V     V_3+5 0.324490 0.248870 0.256310 1.418630
O19   O     O_3   0.952780 0.743870 0.783980 -0.356274
O20   O     O_3   0.047220 0.256130 0.216020 -0.357316
C9    C     C_1   0.966339 0.617155 0.614772 -0.228476
C10   C     C_1   0.032968 0.383085 0.385054 -0.225595
C11   C     C_1   0.977522 0.573621 0.571932 -0.019425
C12   C     C_1   0.021074 0.426730 0.427800 -0.021600
C13   C     C_1   0.992620 0.521992 0.521223 -0.006419
C14   C     C_1   0.005766 0.478409 0.478470 -0.007728
C15   C     C_R   0.958445 0.914173 0.663511 -0.051744
C16   C     C_R   0.051670 0.085849 0.336875 -0.048191
C17   C     C_R   0.003204 0.036264 0.671426 -0.161147
C18   C     C_R   0.111373 0.964043 0.332136 -0.157130
C19   C     C_R   0.969432 0.976875 0.697048 -0.168719
C20   C     C_R   0.089672 0.023391 0.304835 -0.171312
C21   C     C_R   0.979429 0.911770 0.603177 -0.202186
C22   C     C_R   0.035356 0.088138 0.397383 -0.195513
C23   C     C_R   0.030911 0.970864 0.576182 0.079423
C24   C     C_R   0.074395 0.029174 0.427149 0.076649
C25   C     C_R   0.035750 0.034525 0.611263 0.075778
C26   C     C_R   0.104821 0.965635 0.393134 0.076511
C27   C     C_R   0.074995 0.968683 0.515588 -0.026034
C28   C     C_R   0.080984 0.031346 0.489334 -0.027630
C29   C     C_R   0.111816 0.093097 0.526289 -0.050034
C30   C     C_R   0.130194 0.906977 0.481291 -0.048440
C31   C     C_R   0.084439 0.094691 0.586743 -0.065530
C32   C     C_R   0.139322 0.905411 0.420285 -0.065011
H1    H     H_    0.990936 0.136212 0.420248 0.106420
H2    H     H_    0.953285 0.863466 0.578232 0.107923
H3    H     H_    0.103903 0.020567 0.258258 0.104302
H4    H     H_    0.954409 0.979796 0.743602 0.105095
H5    H     H_    0.009088 0.083360 0.699932 0.126770
H6    H     H_    0.138806 0.917086 0.304653 0.124942
C33   C     C_R   0.480552 0.585598 0.834702 -0.041069
C34   C     C_R   0.519319 0.414347 0.165171 -0.041266
C35   C     C_R   0.555440 0.465061 0.830077 -0.165649
C36   C     C_R   0.440763 0.534608 0.169619 -0.164123
C37   C     C_R   0.527361 0.523917 0.802668 -0.175212
C38   C     C_R   0.468242 0.475717 0.197007 -0.175024
C39   C     C_R   0.462300 0.588472 0.894862 -0.205024
C40   C     C_R   0.540926 0.411718 0.105122 -0.204853
C41   C     C_R   0.494208 0.529343 0.924584 0.082161
C42   C     C_R   0.508681 0.470809 0.075362 0.081944
C43   C     C_R   0.541184 0.466703 0.890768 0.092084
C44   C     C_R   0.460268 0.533384 0.109120 0.093377
C45   C     C_R   0.483329 0.530651 0.986425 0.038514
C46   C     C_R   0.519965 0.469480 0.013516 0.038158
C47   C     C_R   0.565028 0.408695 0.977911 -0.222309
C48   C     C_R   0.437918 0.591398 0.021983 -0.224880
C49   C     C_R   0.575222 0.406836 0.917925 -0.028189
C50   C     C_R   0.427855 0.593398 0.081981 -0.025747
H7    H     H_    0.578332 0.362359 0.083297 0.093353
H8    H     H_    0.427632 0.638046 0.916750 0.092666
H9    H     H_    0.448716 0.477970 0.243361 0.105561
H10   H     H_    0.543162 0.521401 0.756158 0.106314
H11   H     H_    0.591208 0.418375 0.803144 0.128063
H12   H     H_    0.400403 0.580894 0.196386 0.124358
H13   H     H_    0.593516 0.360841 0.995284 0.131083
H14   H     H_    0.409725 0.639238 0.004570 0.130491
C51   C     C_1   0.466842 0.882805 0.885253 -0.218634
C52   C     C_1   0.533140 0.117202 0.114740 -0.218397
C53   C     C_1   0.478322 0.926340 0.928084 -0.000595
C54   C     C_1   0.521648 0.073671 0.071907 -0.000661
C55   C     C_1   0.493441 0.978137 0.978674 -0.000429
C56   C     C_1   0.506519 0.021875 0.021316 -0.000443
C57   C     C_R   0.120438 0.158690 0.625210 0.109171
C58   C     C_R   0.309191 0.176163 0.642601 -0.108049
C59   C     C_R   0.342610 0.235301 0.680081 -0.128188
C60   C     C_R   0.187980 0.276963 0.700696 -0.099152
C61   C     C_R   0.999702 0.259791 0.683549 -0.120248
C62   C     C_R   0.965670 0.200862 0.645850 -0.163463
H15   H     H_    0.429762 0.143893 0.627248 0.105072
H16   H     H_    0.488269 0.248626 0.693404 0.111446
H17   H     H_    0.214045 0.322443 0.730063 0.109597
H18   H     H_    0.880096 0.291986 0.699670 0.115448
H19   H     H_    0.819307 0.187741 0.633051 0.107906
C63   C     C_R   0.193742 0.840760 0.384747 0.107547
C64   C     C_R   0.388224 0.821145 0.378261 -0.111820
C65   C     C_R   0.438572 0.760748 0.344135 -0.128852
C66   C     C_R   0.295442 0.719892 0.316213 -0.071453
C67   C     C_R   0.101679 0.739417 0.322245 -0.120706
C68   C     C_R   0.050669 0.799685 0.356406 -0.166716
H20   H     H_    0.500096 0.852586 0.399597 0.107054
H21   H     H_    0.588474 0.745660 0.339180 0.101755
H22   H     H_    0.334750 0.673326 0.289619 0.105282
H23   H     H_    0.991090 0.707950 0.300335 0.107862
H24   H     H_    0.900313 0.814553 0.360760 0.105416
C69   C     C_R   0.215308 0.151110 0.504774 0.104828
C70   C     C_R   0.400257 0.140098 0.481384 -0.122402
C71   C     C_R   0.500277 0.194260 0.462011 -0.116195
C72   C     C_R   0.417277 0.259846 0.466184 -0.086539
C73   C     C_R   0.234081 0.271340 0.489685 -0.127688
C74   C     C_R   0.132767 0.217280 0.508663 -0.140044
H25   H     H_    0.466994 0.089632 0.478396 0.112698
H26   H     H_    0.642468 0.185448 0.444007 0.103704
H27   H     H_    0.495071 0.301790 0.451333 0.108855
H28   H     H_    0.170542 0.322185 0.493340 0.125802
H29   H     H_    0.989813 0.226764 0.525975 0.116109
C75   C     C_R   0.221827 0.848984 0.508790 0.106073
C76   C     C_R   0.389966 0.860009 0.542688 -0.132955
C77   C     C_R   0.479071 0.805924 0.567955 -0.106760
C78   C     C_R   0.401922 0.740427 0.559408 -0.075161
C79   C     C_R   0.235445 0.728908 0.525571 -0.136958
C80   C     C_R   0.145068 0.782860 0.500484 -0.137901
H30   H     H_    0.452214 0.910418 0.549306 0.114766
H31   H     H_    0.608379 0.814716 0.593964 0.112219
H32   H     H_    0.471339 0.698584 0.578915 0.110814
H33   H     H_    0.176440 0.678135 0.518680 0.126320
H34   H     H_    0.014560 0.773361 0.475113 0.117318
C81   C     C_R   0.622971 0.340711 0.884226 0.096759
C82   C     C_R   0.815530 0.322642 0.871886 -0.137256
C83   C     C_R   0.859581 0.261898 0.837324 -0.124607
C84   C     C_R   0.711887 0.218994 0.815058 -0.096900
C85   C     C_R   0.519930 0.236617 0.827523 -0.127913
C86   C     C_R   0.475261 0.297377 0.861953 -0.138688
H35   H     H_    0.930728 0.355969 0.888367 0.113114
H36   H     H_    0.008023 0.248295 0.827461 0.110371
H37   H     H_    0.746162 0.172229 0.788011 0.107140
H38   H     H_    0.405674 0.203470 0.810133 0.116028
H39   H     H_    0.326057 0.311096 0.870708 0.105463
C87   C     C_R   0.382120 0.659923 0.115501 0.097012
C88   C     C_R   0.526919 0.696244 0.147692 -0.150737
C89   C     C_R   0.482310 0.757995 0.180706 -0.123041
C90   C     C_R   0.293343 0.783778 0.181726 -0.071740
C91   C     C_R   0.148781 0.747948 0.149588 -0.128595
C92   C     C_R   0.192897 0.686261 0.116376 -0.135878
H40   H     H_    0.673462 0.676433 0.147509 0.109612
H41   H     H_    0.593951 0.785640 0.205780 0.107857
H42   H     H_    0.258803 0.831335 0.207629 0.105197
H43   H     H_    0.002412 0.767836 0.150591 0.108209
H44   H     H_    0.079635 0.658640 0.091962 0.114615

loop_
_geom_bond_atom_site_label_1
_geom_bond_atom_site_label_2
_ccdc_geom_bond_type
C49   C81   S    
C45   C46   A    
C55   C56   T    
O13   V3    S    
C64   H20   S    
C36   C38   A    
C57   C58   A    
C17   H5    S    
O4    C2    A    
V1    O19   S    
C75   C76   A    
C59   C60   A    
C23   C25   A    
C71   H26   S    
C7    C9    S    
C16   C22   A    
O9    V1    S    
C62   H19   S    
C13   C14   T    
C37   H10   S    
C19   H4    S    
C34   C38   A    
C11   C13   S    
O3    C1    A    
C9    C11   T    
C48   C50   A    
C63   C64   A    
C20   H3    S    
O12   V4    S    
C60   H17   S    
C36   C44   A    
C90   H42   S    
C35   C43   A    
C65   C66   A    
C21   C23   A    
C74   H29   S    
C39   C41   A    
C40   H7    S    
O7    C3    A    
C70   C71   A    
C4    C52   S    
C39   H8    S    
O13   V1    S    
O5    C7    A    
C83   C84   A    
O7    V1    S    
O6    C8    A    
C33   C39   A    
O8    V2    S    
C79   C80   A    
C35   C37   A    
C64   C65   A    
O3    V1    S    
C68   H24   S    
O14   V4    S    
C34   C40   A    
C51   C53   T    
C18   H6    S    
O14   V2    S    
C59   H16   S    
C42   C46   A    
C15   C21   A    
C24   C26   A    
C61   H18   S    
C8    C10   S    
C80   H34   S    
C2    O12   A    
C44   C50   A    
C58   H15   S    
C17   C19   A    
C18   C20   A    
C17   C25   A    
O11   V3    S    
C22   C24   A    
C63   C68   A    
C29   C31   A    
O17   V3    S    
C85   H38   S    
C33   C37   A    
C21   H2    S    
C27   C28   A    
V4    O20   S    
C82   C83   A    
C42   C44   A    
C78   H32   S    
O8    C4    A    
C41   C43   A    
C57   C62   A    
C15   C19   A    
C1    O11   A    
C79   H33   S    
C25   C31   A    
O15   V3    S    
C26   C32   A    
C67   C68   A    
C65   H21   S    
C50   C87   S    
C69   C74   A    
C86   H39   S    
C53   C55   S    
C81   C86   A    
C52   C54   T    
C61   C62   A    
C16   C20   A    
C88   C89   A    
C32   C63   S    
C58   C59   A    
O10   V2    S    
O1    V3    S    
C43   C49   A    
C47   C49   A    
C88   H40   S    
C46   C47   A    
C71   C72   A    
C1    C33   S    
C73   C74   A    
C83   H36   S    
C2    C34   S    
C66   H22   S    
C31   C57   S    
C77   H31   S    
C18   C26   A    
O18   V4    S    
C87   C92   A    
O15   C5    A    
C22   H1    S    
O16   C6    A    
O1    C3    A    
C78   C79   A    
C91   H43   S    
C72   C73   A    
C76   C77   A    
V2    O20   S    
C48   H14   S    
C89   H41   S    
O16   V4    S    
C3    C51   S    
C92   H44   S    
C72   H27   S    
C38   H9    S    
C84   H37   S    
C82   H35   S    
C36   H12   S    
C23   C27   A    
C81   C82   A    
C30   C32   A    
C35   H11   S    
O5    V1    S    
O17   C7    A    
O6    V2    S    
O10   C6    A    
O18   C8    A    
O2    V4    S    
C27   C30   A    
C12   C14   S    
C77   C78   A    
C73   H28   S    
V3    O19   S    
C69   C70   A    
C41   C45   A    
C54   C56   S    
C30   C75   S    
C5    C15   S    
O9    C5    A    
C6    C16   S    
C10   C12   T    
C29   C69   S    
C70   H25   S    
O2    C4    A    
C45   C48   A    
C76   H30   S    
O4    V2    S    
C91   C92   A    
C24   C28   A    
C89   C90   A    
C47   H13   S    
C60   C61   A    
C66   C67   A    
C84   C85   A    
C87   C88   A    
C40   C42   A    
C90   C91   A    
C75   C80   A    
C67   H23   S    
C85   C86   A    
C28   C29   A    
