data_mof_unit_pretest_1786.cif
_audit_creation_date              2012-12-11T15:59:39-0500
_audit_creation_method            fapswitch 2.2
_symmetry_space_group_name_H-M    P1
_symmetry_Int_Tables_number       1
_space_group_crystal_system       triclinic
_cell_length_a                    10.845545
_cell_length_b                    10.939598
_cell_length_c                    17.012309
_cell_angle_alpha                 99.398455
_cell_angle_beta                  100.347299
_cell_angle_gamma                 61.015355
_cell_volume                      1730.08153743

loop_
_atom_site_label
_atom_site_type_symbol
_atom_type_description
_atom_site_fract_x
_atom_site_fract_y
_atom_site_fract_z
_atom_type_partial_charge
C1    C     C_R   0.375237 0.718340 0.386983 0.509900
C2    C     C_R   0.857639 0.215807 0.205266 -0.025336
C3    C     C_R   0.878638 0.217547 0.289286 -0.082202
C4    C     C_R   0.866978 0.443151 0.303436 0.146788
C5    C     C_R   0.860868 0.439300 0.221515 -0.110941
C6    C     C_R   0.845841 0.100573 0.161454 0.193008
C7    C     C_R   0.895626 0.976903 0.198511 0.185073
C8    C     C_R   0.931824 0.978078 0.282242 0.129722
C9    C     C_R   0.921503 0.097835 0.326491 -0.086383
C10   C     C_R   0.856251 0.339752 0.336040 0.016175
C11   C     C_R   0.365319 0.793960 0.148282 0.008170
C12   C     C_R   0.404993 0.370859 0.356303 0.525574
C13   C     C_R   0.446784 0.828750 0.212000 -0.019819
C14   C     C_R   0.415934 0.840914 0.290205 -0.062355
C15   C     C_R   0.293540 0.701446 0.239653 -0.078348
C16   C     C_R   0.304921 0.713747 0.161076 -0.046272
C17   C     C_R   0.562518 0.844240 0.200220 0.159340
C18   C     C_R   0.628320 0.896753 0.264507 -0.045589
C19   C     C_R   0.576816 0.936447 0.339480 0.160447
C20   C     C_R   0.460851 0.921033 0.349888 0.015259
C21   C     C_R   0.352213 0.763011 0.305864 -0.017784
C22   C     C_R   0.340457 0.350185 0.831114 -0.018127
C23   C     C_R   0.779935 0.377562 0.406292 0.530787
C24   C     C_R   0.471045 0.263432 0.800407 -0.072386
C25   C     C_R   0.473625 0.231898 0.717009 -0.044758
C26   C     C_R   0.230695 0.430170 0.699644 0.137332
C27   C     C_R   0.226195 0.444887 0.782304 0.153993
C28   C     C_R   0.592765 0.183054 0.851544 -0.112187
C29   C     C_R   0.672916 0.041296 0.827824 -0.005869
C30   C     C_R   0.649363 0.993966 0.748227 0.172953
C31   C     C_R   0.581813 0.093647 0.691919 0.203696
C32   C     C_R   0.354941 0.327559 0.666024 -0.029592
C33   C     C_1   0.816816 0.343481 0.709171 0.025726
C34   C     C_R   0.358828 0.768519 0.627353 0.559111
C35   C     C_1   0.844092 0.314642 0.777001 0.005003
C36   C     C_1   0.339823 0.810245 0.709579 -0.001574
C37   C     C_1   0.312483 0.838965 0.777489 0.003582
C38   C     C_R   0.897550 0.307654 0.089832 0.564841
C39   C     C_R   0.322077 0.298249 0.119343 0.557435
C40   C     C_R   0.299697 0.883890 0.081699 0.555936
C41   C     C_R   0.886376 0.297417 0.859460 0.540668
C42   C     C_R   0.309962 0.297131 0.896062 0.558571
C43   C     C_R   0.277883 0.886334 0.857238 0.557188
C44   C     C_R   0.374479 0.347495 0.586680 0.585797
C45   C     C_R   0.772123 0.381857 0.629667 0.562590
C46   C     C_1   0.378475 0.348644 0.272370 -0.025492
C47   C     C_1   0.353728 0.330096 0.201495 -0.012822
C48   C     C_R   0.853956 0.327193 0.170191 -0.010168
Cr1   Cr    Cr6+3 0.608100 0.610860 0.522250 1.153861
Cr2   Cr    Cr6+3 0.288890 0.599990 0.488420 1.172039
Cr3   Cr    Cr6+3 0.603040 0.289190 0.489390 1.117277
Cr4   Cr    Cr6+3 0.053960 0.052250 0.967380 1.105783
Cr5   Cr    Cr6+3 0.059890 0.373160 0.992710 1.157689
Cr6   Cr    Cr6+3 0.373370 0.061690 0.991710 1.118577
H1    H     H_    0.719305 0.904392 0.255732 0.203604
H2    H     H_    0.603447 0.221028 0.913805 0.176134
H3    H     H_    0.872785 0.519883 0.199499 0.223426
H4    H     H_    0.948370 0.097454 0.391102 0.186018
O1    O     O_R   0.749810 0.499790 0.438040 -0.453391
O2    O     O_R   0.298970 0.468800 0.557390 -0.450901
O3    O     O_R   0.489400 0.255930 0.561910 -0.453984
O4    O     O_R   0.723890 0.306050 0.584610 -0.470907
O5    O     O_3   0.500010 0.500010 0.500020 -0.356086
O6    O     O_R   0.171100 0.914680 0.053100 -0.485177
O7    O     O_R   0.941680 0.184840 0.050710 -0.473735
O8    O     O_R   0.922080 0.403420 0.072610 -0.479562
O9    O     O_R   0.196880 0.369150 0.083850 -0.472407
O10   O     O_R   0.411730 0.181020 0.091530 -0.466286
O11   O     O_R   0.365010 0.944360 0.063320 -0.465660
O12   O     O_R   0.477660 0.726260 0.439290 -0.482600
O13   O     O_R   0.159380 0.906670 0.876210 -0.468613
O14   O     O_R   0.930820 0.177420 0.886730 -0.501105
O15   O     O_R   0.910360 0.395420 0.895720 -0.462292
O16   O     O_R   0.186010 0.361730 0.919870 -0.447304
O17   O     O_R   0.400000 0.173010 0.914630 -0.510188
O18   O     O_R   0.354140 0.936940 0.899340 -0.490513
O19   O     O_3   0.162410 0.162370 0.983930 -0.311241
O20   O     O_R   0.260150 0.743000 0.412270 -0.457130
O21   O     O_R   0.297740 0.466550 0.394720 -0.450407
O22   O     O_R   0.488080 0.253500 0.386430 -0.476195
O23   O     O_R   0.722670 0.303800 0.421940 -0.515065
O24   O     O_R   0.751130 0.502220 0.613520 -0.435125
O25   O     O_R   0.478890 0.728510 0.601960 -0.466645
O26   O     O_R   0.261470 0.745430 0.587750 -0.464164
Br1   Br    Br    0.914760 0.576466 0.369531 -0.319142
Br2   Br    Br    0.681388 0.978660 0.432774 -0.288715
C49   C     C_1   0.381752 0.997358 0.417538 0.300469
N1    N     N_1   0.318453 0.058584 0.471415 -0.250271
Br3   Br    Br    0.057431 0.538395 0.632410 -0.283986
Br4   Br    Br    0.066006 0.599148 0.828605 -0.325102
C50   C     C_1   0.770696 0.945672 0.885566 0.320944
N2    N     N_1   0.849183 0.868679 0.931956 -0.128471
Br5   Br    Br    0.730572 0.797460 0.713444 -0.318494
Br6   Br    Br    0.733622 0.056325 0.632871 -0.327468
Br7   Br    Br    0.713426 0.129781 0.066405 -0.462304
Br8   Br    Br    0.922657 0.810587 0.132076 -0.366333
Br9   Br    Br    0.966857 0.839144 0.347655 -0.365059
C51   C     C_1   0.206283 0.640253 0.248150 0.261648
N3    N     N_1   0.132360 0.592484 0.250568 -0.172373
Br10  Br    Br    0.655471 0.751370 0.105526 -0.403827
C52   C     C_1   0.255963 0.645083 0.091811 0.256656
N4    N     N_1   0.217399 0.592111 0.035540 -0.192558

loop_
_geom_bond_atom_site_label_1
_geom_bond_atom_site_label_2
_ccdc_geom_bond_type
C25   C31   A    
C49   N1    T    
C12   O21   A    
C1    C21   S    
C52   N4    T    
Cr1   O5    S    
C33   C45   S    
C39   O10   A    
C19   C20   A    
Cr3   O3    S    
C19   Br2   S    
Cr2   O21   S    
C28   H2    S    
Cr2   O26   S    
C7    C8    A    
C26   Br3   S    
C23   O1    A    
C7    Br8   S    
C42   O17   A    
Cr4   O14   S    
C14   C21   A    
C28   C29   A    
C18   C19   A    
C30   Br5   S    
C30   C31   A    
C45   O24   A    
Cr6   O10   S    
C15   C16   A    
C20   C49   S    
C45   O4    A    
C27   Br4   S    
C9    H4    S    
Cr3   O22   S    
C38   O8    A    
C8    C9    A    
Cr3   O23   S    
C38   C48   S    
Cr6   O19   S    
C25   C32   A    
C13   C14   A    
Cr2   O5    S    
C2    C6    A    
Cr3   O4    S    
C34   O26   A    
Cr5   O9    S    
Cr2   O20   S    
C5    C48   A    
C42   O16   A    
C40   O11   A    
C1    O20   A    
C14   C20   A    
Cr3   O5    S    
C24   C25   A    
C12   C46   S    
Cr4   O6    S    
C50   N2    T    
C26   C32   A    
C4    Br1   S    
C2    C48   A    
Cr1   O24   S    
C37   C43   S    
Cr5   O19   S    
C8    Br9   S    
C29   C30   A    
C3    C9    A    
C11   C16   A    
C38   O7    A    
C17   C18   A    
C32   C44   S    
Cr5   O8    S    
C18   H1    S    
C41   O14   A    
Cr6   O18   S    
C51   N3    T    
Cr1   O12   S    
C26   C27   A    
C44   O3    A    
C22   C24   A    
C34   O25   A    
C15   C51   S    
C4    C10   A    
Cr4   O19   S    
C29   C50   S    
C39   C47   S    
C43   O18   A    
C46   C47   T    
C36   C37   T    
C43   O13   A    
C23   O23   A    
C39   O9    A    
Cr5   O15   S    
C24   C28   A    
C4    C5    A    
Cr1   O1    S    
C6    C7    A    
C13   C17   A    
C10   C23   S    
C31   Br6   S    
C1    O12   A    
C40   O6    A    
C5    H3    S    
C22   C27   A    
Cr2   O2    S    
Cr1   O25   S    
C2    C3    A    
C3    C10   A    
C11   C13   A    
C22   C42   S    
Cr6   O11   S    
C44   O2    A    
C12   O22   A    
C33   C35   T    
C34   C36   S    
C11   C40   S    
C35   C41   S    
C17   Br10  S    
C41   O15   A    
Cr6   O17   S    
C16   C52   S    
C15   C21   A    
C6    Br7   S    
Cr4   O13   S    
Cr4   O7    S    
Cr5   O16   S    
