data_mof_unit_pretest_1883.cif
_audit_creation_date              2012-12-10T20:32:48-0500
_audit_creation_method            fapswitch 2.2
_symmetry_space_group_name_H-M    P1
_symmetry_Int_Tables_number       1
_space_group_crystal_system       triclinic
_cell_length_a                    18.887525
_cell_length_b                    19.095431
_cell_length_c                    19.42016
_cell_angle_alpha                 111.364352
_cell_angle_beta                  110.993121
_cell_angle_gamma                 103.392027
_cell_volume                      5536.57958539

loop_
_atom_site_label
_atom_site_type_symbol
_atom_type_description
_atom_site_fract_x
_atom_site_fract_y
_atom_site_fract_z
_atom_type_partial_charge
C1    C     C_R   0.891011 0.391427 0.001119 0.886018
C2    C     C_R   0.968972 0.775410 0.074500 0.072199
C3    C     C_R   0.745995 0.571775 0.754317 -0.134473
C4    C     C_R   0.683130 0.495287 0.686562 -0.125977
C5    C     C_R   0.675699 0.421847 0.692120 0.075655
C6    C     C_R   0.736868 0.426458 0.762655 0.125948
C7    C     C_R   0.807001 0.500820 0.821171 -0.129744
C8    C     C_R   0.806310 0.575182 0.823587 0.099933
C9    C     C_R   0.532521 0.307495 0.616594 0.114035
C10   C     C_R   0.477232 0.223880 0.559944 0.269302
C11   C     C_R   0.503759 0.168499 0.516888 0.285869
C12   C     C_R   0.878528 0.500688 0.881814 0.919409
C13   C     C_R   0.584688 0.197012 0.527653 0.098871
C14   C     C_R   0.637635 0.282111 0.578279 0.051385
C15   C     C_R   0.611609 0.337886 0.622994 -0.138162
C16   C     C_1   0.830277 0.332761 0.002228 -0.105260
C17   C     C_1   0.779008 0.282349 0.002123 0.067201
C18   C     C_1   0.719374 0.222576 0.001269 0.080026
C19   C     C_1   0.668627 0.170881 0.000353 -0.082670
C20   C     C_R   0.999992 0.536258 0.292658 0.312839
C21   C     C_R   0.076035 0.548187 0.291843 0.315393
C22   C     C_R   0.090663 0.479236 0.251518 -0.120896
C23   C     C_R   0.109723 0.608531 0.999592 0.902158
C24   C     C_R   0.028345 0.398833 0.211523 0.091942
C25   C     C_R   0.953334 0.387719 0.213116 -0.291258
C26   C     C_R   0.938856 0.455703 0.253356 0.335076
C27   C     C_R   0.238473 0.496168 0.318037 0.151065
C28   C     C_R   0.312779 0.501371 0.313760 -0.152029
C29   C     C_R   0.319678 0.502933 0.243975 0.085595
C30   C     C_R   0.252578 0.497838 0.179397 -0.183205
C31   C     C_R   0.180055 0.492206 0.183216 -0.080569
C32   C     C_R   0.171348 0.490740 0.251608 0.077480
C33   C     C_R   0.447878 0.582079 0.248689 0.073894
C34   C     C_R   0.116894 0.496114 0.118786 0.870934
C35   C     C_R   0.503047 0.583908 0.215782 0.321225
C36   C     C_R   0.501814 0.509745 0.162951 0.325808
C37   C     C_R   0.448063 0.433576 0.146051 0.126551
C38   C     C_R   0.393370 0.431805 0.180077 0.064376
C39   C     C_R   0.392852 0.506165 0.231056 -0.096695
C40   C     C_1   0.170843 0.667197 0.998862 -0.024867
C41   C     C_1   0.221960 0.718052 0.999244 0.175062
C42   C     C_1   0.281132 0.778255 0.000065 0.115397
C43   C     C_1   0.331538 0.829786 0.000479 -0.117289
C44   C     C_R   0.506168 0.380181 0.383870 0.883799
C45   C     C_R   0.884673 0.732863 0.049186 0.058270
C46   C     C_R   0.620090 0.496062 0.617681 0.877874
C47   C     C_R   0.498374 0.620313 0.619532 0.939585
C48   C     C_R   0.379548 0.500427 0.379345 0.907309
C49   C     C_R   0.496655 0.877426 0.879742 0.876489
C50   C     C_R   0.609026 0.109478 0.999793 0.911502
C51   C     C_R   0.500110 0.119649 0.120096 0.943027
C52   C     C_R   0.390991 0.890666 0.000377 0.862370
C53   C     C_R   0.770310 0.533815 0.444494 0.271649
C54   C     C_R   0.689381 0.473224 0.382451 0.381698
C55   C     C_R   0.665083 0.391632 0.368865 -0.167198
C56   C     C_R   0.828708 0.672361 0.963820 0.110841
C57   C     C_R   0.727001 0.368939 0.410198 0.097002
C58   C     C_R   0.809281 0.429216 0.469438 0.306221
C59   C     C_R   0.830087 0.512141 0.488905 0.055729
C60   C     C_R   0.570132 0.264304 0.229780 0.358830
C61   C     C_R   0.499500 0.188953 0.181138 -0.148875
C62   C     C_R   0.429567 0.180243 0.192533 0.098986
C63   C     C_R   0.434654 0.245135 0.259312 -0.187978
C64   C     C_R   0.508380 0.316723 0.315820 -0.152068
C65   C     C_R   0.578966 0.326396 0.302842 0.070991
C66   C     C_R   0.282392 0.093462 0.075353 0.304348
C67   C     C_R   0.857458 0.654232 0.904270 -0.135298
C68   C     C_R   0.201887 0.055221 0.061830 0.275249
C69   C     C_R   0.191581 0.025969 0.115834 0.275050
C70   C     C_R   0.260115 0.024054 0.174856 0.320301
C71   C     C_R   0.339695 0.059013 0.185246 0.009553
C72   C     C_R   0.352148 0.102969 0.143381 -0.201554
C73   C     C_R   0.613465 0.851460 0.588170 0.088033
C74   C     C_R   0.600406 0.816083 0.637214 0.091641
C75   C     C_R   0.519745 0.784135 0.626922 -0.080223
C76   C     C_R   0.453078 0.790175 0.569693 0.039605
C77   C     C_R   0.467334 0.829675 0.524255 0.116246
C78   C     C_R   0.940096 0.700456 0.928584 0.291245
C79   C     C_R   0.547467 0.860048 0.533523 0.285748
C80   C     C_R   0.507662 0.823932 0.754126 -0.184791
C81   C     C_R   0.499193 0.811321 0.816904 -0.102333
C82   C     C_R   0.496130 0.738400 0.820099 0.043408
C83   C     C_R   0.496297 0.675288 0.754841 0.387977
C84   C     C_R   0.500200 0.686440 0.688093 -0.182895
C85   C     C_R   0.509176 0.762921 0.689860 0.062746
C86   C     C_R   0.563834 0.756052 0.966450 0.139031
C87   C     C_R   0.557688 0.741282 0.030411 0.371623
C88   C     C_R   0.480270 0.694334 0.016542 -0.283724
C89   C     C_R   0.995878 0.760664 0.013671 0.344004
C90   C     C_R   0.408123 0.662715 0.939958 0.323770
C91   C     C_R   0.412531 0.680109 0.876949 0.348114
C92   C     C_R   0.490631 0.726398 0.889739 -0.155240
H1    H     H_    0.905910 0.325765 0.182760 0.221611
H2    H     H_    0.257536 0.499774 0.126013 0.170448
H3    H     H_    0.380507 0.238277 0.268406 0.191619
H4    H     H_    0.513425 0.882387 0.755330 0.167119
H5    H     H_    0.476260 0.681522 0.065281 0.247847
H6    H     H_    0.745633 0.628834 0.755209 0.190143
O1    O     O_R   0.916810 0.468940 0.051330 -0.612294
O2    O     O_R   0.453980 0.361630 0.409070 -0.623768
O3    O     O_R   0.638350 0.546700 0.591580 -0.616723
O4    O     O_R   0.544890 0.453260 0.591610 -0.598704
O5    O     O_R   0.546020 0.638330 0.590880 -0.619226
O6    O     O_R   0.452560 0.544900 0.590910 -0.551547
O7    O     O_R   0.455110 0.546690 0.408340 -0.602487
O8    O     O_R   0.361650 0.453260 0.408370 -0.592305
O9    O     O_R   0.446640 0.909720 0.856320 -0.597243
O10   O     O_R   0.550070 0.907030 0.957060 -0.623765
O11   O     O_R   0.531060 0.084080 0.949590 -0.603427
O12   O     O_R   0.917640 0.365500 0.948670 -0.588660
O13   O     O_R   0.634490 0.081390 0.050330 -0.583216
O14   O     O_R   0.449930 0.092880 0.042850 -0.573051
O15   O     O_R   0.553360 0.090200 0.143600 -0.578504
O16   O     O_R   0.365510 0.918520 0.949590 -0.583256
O17   O     O_R   0.468940 0.915840 0.050330 -0.615407
O18   O     O_R   0.907960 0.551720 0.959710 -0.647503
O19   O     O_R   0.908790 0.448280 0.857050 -0.567832
O20   O     O_R   0.082360 0.634500 0.051330 -0.599042
O21   O     O_R   0.083190 0.531060 0.948670 -0.584453
O22   O     O_R   0.091210 0.551720 0.142950 -0.588362
O23   O     O_R   0.092040 0.448280 0.040290 -0.609230
O24   O     O_R   0.547440 0.455060 0.409050 -0.594621
Zn1   Zn    Zn3+2 0.999450 0.569070 0.068540 1.077304
Zn2   Zn    Zn3+2 0.000550 0.430930 0.931460 1.131492
Zn3   Zn    Zn3+2 0.562400 0.562360 0.499960 1.088127
Zn4   Zn    Zn3+2 0.437600 0.437590 0.500000 1.126651
Zn5   Zn    Zn3+2 0.430940 0.001750 0.932690 1.141711
Zn6   Zn    Zn3+2 0.569060 0.998160 0.067220 1.116369
I1    I     I_    0.057163 0.856644 0.205670 0.096946
Cl1   Cl    Cl    0.437404 0.061875 0.455603 -0.354627
I2    I     I_    0.630422 0.109674 0.477342 0.044022
I3    I     I_    0.764087 0.325592 0.602235 -0.144644
Cl2   Cl    Cl    0.843261 0.438017 0.253536 -0.403315
Cl3   Cl    Cl    0.981252 0.622021 0.343010 -0.340102
Cl4   Cl    Cl    0.152453 0.649478 0.340285 -0.445111
I4    I     I_    0.044222 0.291667 0.148164 -0.167682
I5    I     I_    0.225279 0.499638 0.424827 -0.118083
I6    I     I_    0.843445 0.754909 0.141255 0.045999
I7    I     I_    0.440106 0.693282 0.316310 -0.139649
Cl5   Cl    Cl    0.572518 0.679210 0.238598 -0.353738
Cl6   Cl    Cl    0.569451 0.513092 0.119436 -0.344616
I8    I     I_    0.451104 0.322626 0.068902 0.003348
I9    I     I_    0.303643 0.317753 0.148178 -0.189806
I10   I     I_    0.953477 0.604284 0.582468 0.111958
Cl7   Cl    Cl    0.797350 0.636836 0.464268 -0.358155
Cl8   Cl    Cl    0.621643 0.498804 0.316664 -0.482344
I11   I     I_    0.699953 0.241744 0.376608 -0.091562
Cl9   Cl    Cl    0.888061 0.400443 0.516392 -0.397445
I12   I     I_    0.702322 0.600421 0.925448 -0.112380
Cl10  Cl    Cl    0.649155 0.279644 0.200730 -0.495930
Cl11  Cl    Cl    0.295591 0.130364 0.007944 -0.425855
Cl12  Cl    Cl    0.114691 0.049519 0.981327 -0.337992
Cl13  Cl    Cl    0.093869 0.995609 0.111727 -0.374192
Cl14  Cl    Cl    0.248756 0.985424 0.241621 -0.344869
I13   I     I_    0.443897 0.051087 0.267350 -0.123887
Cl15  Cl    Cl    0.565947 0.911469 0.478270 -0.406999
I14   I     I_    0.733605 0.895408 0.598240 0.030661
I15   I     I_    0.703840 0.818295 0.733597 -0.178529
Cl16  Cl    Cl    0.975313 0.677638 0.853471 -0.494147
I16   I     I_    0.332442 0.745623 0.558732 -0.100430
I17   I     I_    0.369280 0.848145 0.444876 0.085566
Cl17  Cl    Cl    0.497150 0.585250 0.761128 -0.496439
I18   I     I_    0.683496 0.820755 0.984732 -0.135430
Cl18  Cl    Cl    0.645893 0.779637 0.128590 -0.391629
Cl19  Cl    Cl    0.313357 0.598716 0.923529 -0.497831
Cl20  Cl    Cl    0.320460 0.642485 0.781423 -0.429256
Cl21  Cl    Cl    0.101055 0.812911 0.044307 -0.491313
I19   I     I_    0.720091 0.322816 0.785142 -0.243722
I20   I     I_    0.501985 0.382491 0.703857 0.005889
Cl22  Cl    Cl    0.376138 0.186563 0.547344 -0.383732

loop_
_geom_bond_atom_site_label_1
_geom_bond_atom_site_label_2
_ccdc_geom_bond_type
C66   C68   A    
C87   C88   A    
C25   H1    S    
C51   O14   A    
O18   Zn1   S    
C73   I14   S    
C11   C13   A    
C41   C42   S    
C91   Cl20  S    
C9    I20   S    
C35   C36   A    
C51   C61   S    
C36   Cl6   S    
C1    O1    A    
C23   O20   A    
C81   C82   A    
C53   C59   A    
C7    C8    A    
C49   O9    A    
O15   Zn6   S    
C14   I3    S    
C53   C54   A    
C44   C64   S    
C46   O4    A    
C28   C29   A    
C80   C85   A    
C22   C32   S    
O2    Zn4   S    
C36   C37   A    
O19   Zn2   S    
C23   O21   A    
C38   C39   A    
C1    O12   A    
C58   Cl9   S    
C43   C52   S    
C23   C40   S    
C63   H3    S    
C2    I1    S    
C82   C92   S    
C18   C19   T    
C73   C74   A    
C49   C81   S    
C89   Cl21  S    
O14   Zn5   S    
O12   Zn2   S    
C79   Cl15  S    
C84   C85   A    
C75   C85   S    
C48   O8    A    
C83   C84   A    
C45   C56   A    
C66   C72   A    
C16   C17   T    
O23   Zn2   S    
O3    Zn3   S    
C70   C71   A    
C80   H4    S    
C9    C10   A    
C88   H5    S    
O22   Zn1   S    
C54   Cl8   S    
C24   I4    S    
C87   Cl18  S    
C2    C45   A    
C21   C22   A    
C34   O22   A    
C61   C62   A    
C67   C78   A    
C55   C65   S    
O11   Zn5   S    
C49   O10   A    
C77   C79   A    
C78   C89   A    
C77   I17   S    
C7    C12   S    
C46   O3    A    
C6    I19   S    
C47   O5    A    
C74   C75   A    
C74   I15   S    
C24   C25   A    
C3    C8    A    
C37   I8    S    
C91   C92   A    
C86   C87   A    
C68   C69   A    
C4    C46   S    
O4    Zn4   S    
C25   C26   A    
O21   Zn2   S    
C50   O11   A    
C69   Cl13  S    
O17   Zn6   S    
C63   C64   A    
C66   Cl11  S    
C60   C61   A    
C37   C38   A    
C2    C89   A    
C75   C76   A    
C29   C30   A    
C68   Cl12  S    
C35   Cl5   S    
C33   C39   A    
C48   O7    A    
C30   C31   A    
C71   I13   S    
C29   C39   S    
C62   C63   A    
C53   Cl7   S    
C17   C18   S    
C13   I2    S    
C31   C34   S    
C62   C72   S    
C1    C16   S    
C27   I5    S    
C47   C84   S    
C76   C77   A    
C60   Cl10  S    
C38   I9    S    
C40   C41   T    
C83   Cl17  S    
C88   C90   A    
C59   I10   S    
C34   O23   A    
C57   I11   S    
C90   Cl19  S    
C22   C24   A    
C42   C43   T    
C90   C91   A    
C3    C4    A    
C11   Cl1   S    
O13   Zn6   S    
O1    Zn1   S    
C52   O17   A    
C54   C55   A    
C28   C48   S    
C47   O6    A    
C27   C32   A    
C70   Cl14  S    
C51   O15   A    
C31   C32   A    
C80   C81   A    
C73   C79   A    
C60   C65   A    
C6    C7    A    
C52   O16   A    
C10   Cl22  S    
C56   C67   A    
O8    Zn4   S    
O7    Zn3   S    
C64   C65   A    
O24   Zn3   S    
C55   C57   A    
C58   C59   A    
O9    Zn5   S    
C71   C72   A    
C30   H2    S    
C26   Cl2   S    
C86   C92   A    
O16   Zn5   S    
C44   O2    A    
C19   C50   S    
C57   C58   A    
C5    C6    A    
C76   I16   S    
C20   C26   A    
C33   I7    S    
C44   O24   A    
C50   O13   A    
C33   C35   A    
O20   Zn1   S    
C9    C15   A    
C69   C70   A    
O5    Zn3   S    
C5    C15   S    
C10   C11   A    
C12   O19   A    
C78   Cl16  S    
C4    C5    A    
O6    Zn4   S    
C20   C21   A    
C8    C67   S    
C82   C83   A    
C27   C28   A    
C14   C15   A    
C45   I6    S    
C86   I18   S    
O10   Zn6   S    
C20   Cl3   S    
C56   I12   S    
C13   C14   A    
C21   Cl4   S    
C3    H6    S    
C12   O18   A    
