data_mof_unit_pretest_1535.cif
_audit_creation_date              2012-12-10T17:58:21-0500
_audit_creation_method            fapswitch 2.2
_symmetry_space_group_name_H-M    P1
_symmetry_Int_Tables_number       1
_space_group_crystal_system       triclinic
_cell_length_a                    21.73316
_cell_length_b                    21.734208
_cell_length_c                    22.097506
_cell_angle_alpha                 119.261267
_cell_angle_beta                  119.245789
_cell_angle_gamma                 89.678793
_cell_volume                      7563.20711032

loop_
_atom_site_label
_atom_site_type_symbol
_atom_type_description
_atom_site_fract_x
_atom_site_fract_y
_atom_site_fract_z
_atom_type_partial_charge
C1    C     C_R   0.499920 0.118630 0.500095 0.786853
C2    C     C_3   0.714865 0.306353 0.048940 -0.374357
C3    C     C_3   0.790956 0.291983 0.082584 0.320530
C4    C     C_3   0.777099 0.208573 0.049339 -0.371391
C5    C     C_3   0.728421 0.159937 0.952349 -0.375769
C6    C     C_1   0.837266 0.338173 0.174822 -0.112768
C7    C     C_1   0.661836 0.162882 0.825172 -0.112456
C8    C     C_1   0.624234 0.125024 0.749738 -0.168919
C9    C     C_R   0.438009 0.193372 0.448100 0.072150
C10   C     C_R   0.500963 0.185862 0.502258 -0.083962
C11   C     C_R   0.566558 0.246169 0.558939 -0.195744
C12   C     C_R   0.579756 0.079975 0.659928 0.818456
C13   C     C_R   0.566491 0.311372 0.559602 -0.210310
C14   C     C_R   0.501486 0.315636 0.501598 -0.076967
C15   C     C_R   0.438723 0.254650 0.446464 0.125957
C16   C     C_3   0.359396 0.224913 0.375926 -0.528910
C17   C     C_3   0.358832 0.154232 0.376835 -0.232226
C18   C     C_3   0.223397 0.733056 0.049780 -0.371771
C19   C     C_3   0.336858 0.749105 0.048021 -0.373922
C20   C     C_3   0.288236 0.700436 0.951018 -0.372564
C21   C     C_1   0.125114 0.624271 0.749745 -0.172832
C22   C     C_3   0.291950 0.791022 0.082600 0.318739
C23   C     C_R   0.500515 0.881494 0.500519 0.787751
C24   C     C_3   0.174777 0.684388 0.952782 -0.374304
C25   C     C_3   0.209154 0.708144 0.917422 0.321040
C26   C     C_3   0.215712 0.790927 0.950738 -0.373954
C27   C     C_3   0.264332 0.839595 0.047735 -0.372664
C28   C     C_1   0.162917 0.661908 0.825181 -0.113470
C29   C     C_1   0.338138 0.837295 0.174837 -0.109290
C30   C     C_1   0.375745 0.875111 0.250269 -0.162875
C31   C     C_R   0.439544 0.751430 0.437707 0.100753
C32   C     C_R   0.501479 0.814289 0.499203 -0.074168
C33   C     C_R   0.567355 0.809018 0.554305 -0.208186
C34   C     C_R   0.420240 0.920082 0.340075 0.821037
C35   C     C_R   0.567299 0.744736 0.554642 -0.216229
C36   C     C_R   0.501985 0.684602 0.497865 -0.085615
C37   C     C_R   0.440100 0.687221 0.436337 0.137489
C38   C     C_3   0.361511 0.671011 0.410786 -0.487452
C39   C     C_3   0.361060 0.741790 0.412546 -0.457414
C40   C     C_R   0.881403 0.500008 0.499744 0.797083
C41   C     C_R   0.920212 0.420243 0.340068 0.821091
C42   C     C_R   0.118676 0.499444 0.499441 0.794041
C43   C     C_R   0.080134 0.579762 0.659932 0.824399
C44   C     C_R   0.618797 0.499895 0.499701 0.805628
C45   C     C_3   0.666180 0.257709 0.951932 -0.370646
C46   C     C_R   0.500288 0.381278 0.500358 0.808708
C47   C     C_R   0.381131 0.500103 0.500333 0.803711
C48   C     C_R   0.499897 0.618892 0.499611 0.799313
C49   C     C_R   0.804307 0.562982 0.547286 0.126947
C50   C     C_R   0.814101 0.498885 0.497643 -0.089008
C51   C     C_R   0.756121 0.432055 0.445826 -0.209677
C52   C     C_R   0.690918 0.432120 0.445185 -0.213866
C53   C     C_R   0.684419 0.498566 0.498514 -0.089480
C54   C     C_R   0.743149 0.562543 0.549030 0.126443
C55   C     C_3   0.769971 0.643614 0.613132 -0.483644
C56   C     C_3   0.780897 0.261107 0.950213 -0.373280
C57   C     C_3   0.840260 0.644005 0.611831 -0.472769
C58   C     C_R   0.248588 0.560544 0.562091 0.104295
C59   C     C_R   0.185858 0.498480 0.500780 -0.078898
C60   C     C_R   0.191239 0.432521 0.445910 -0.202185
C61   C     C_R   0.255500 0.432585 0.445556 -0.203700
C62   C     C_R   0.315468 0.498004 0.502089 -0.088027
C63   C     C_R   0.312780 0.560005 0.563453 0.139604
C64   C     C_3   0.328779 0.638478 0.588592 -0.488951
C65   C     C_3   0.258004 0.638913 0.586838 -0.459909
C66   C     C_3   0.829577 0.309745 0.047208 -0.373939
C67   C     C_1   0.875148 0.375762 0.250256 -0.170427
C68   C     C_3   0.708060 0.209156 0.917410 0.320386
Cu1   Cu    Cu3+1 0.438190 0.000000 0.500020 0.984722
Cu2   Cu    Cu3+1 0.561810 0.000000 0.499980 0.947240
Cu3   Cu    Cu3+1 0.000200 0.561800 0.500000 0.942474
Cu4   Cu    Cu3+1 0.000170 0.438200 0.500000 0.953225
Cu5   Cu    Cu3+1 0.541330 0.541310 0.582630 0.944362
Cu6   Cu    Cu3+1 0.458770 0.458690 0.417370 0.940930
H1    H     H_    0.723065 0.365871 0.071521 0.164264
H2    H     H_    0.613686 0.221818 0.929684 0.164141
H3    H     H_    0.685638 0.293712 0.073056 0.162146
H4    H     H_    0.830864 0.196498 0.072214 0.163191
H5    H     H_    0.617154 0.243187 0.602872 0.149748
H6    H     H_    0.617112 0.357458 0.603950 0.153626
H7    H     H_    0.325190 0.257190 0.395185 0.211857
H8    H     H_    0.352949 0.216188 0.318952 0.194064
H9    H     H_    0.352092 0.105051 0.320428 0.133491
H10   H     H_    0.169703 0.625143 0.930185 0.163976
H11   H     H_    0.651113 0.293978 0.928148 0.164264
H12   H     H_    0.241558 0.697072 0.073548 0.161018
H13   H     H_    0.386350 0.789414 0.070280 0.163498
H14   H     H_    0.357156 0.713424 0.071755 0.163031
H15   H     H_    0.285298 0.641493 0.928388 0.164404
H16   H     H_    0.314488 0.717483 0.926912 0.161558
H17   H     H_    0.231536 0.870167 0.071260 0.168252
H18   H     H_    0.312459 0.881607 0.069989 0.161049
H19   H     H_    0.159674 0.798237 0.927899 0.162824
H20   H     H_    0.189825 0.761618 0.073335 0.167742
H21   H     H_    0.117968 0.689692 0.929976 0.161878
H22   H     H_    0.812393 0.227704 0.926696 0.163023
H23   H     H_    0.240599 0.809681 0.926630 0.162356
H24   H     H_    0.617538 0.855695 0.599564 0.149284
H25   H     H_    0.617461 0.742544 0.599995 0.151054
H26   H     H_    0.324560 0.620120 0.346974 0.202808
H27   H     H_    0.356057 0.673671 0.459411 0.186455
H28   H     H_    0.323815 0.731677 0.349746 0.194801
H29   H     H_    0.355461 0.785564 0.462339 0.212148
H30   H     H_    0.760820 0.380435 0.405502 0.154850
H31   H     H_    0.646587 0.380555 0.404543 0.153276
H32   H     H_    0.735896 0.673752 0.587921 0.192666
H33   H     H_    0.767993 0.297443 0.926399 0.162282
H34   H     H_    0.779969 0.656092 0.672904 0.205179
H35   H     H_    0.847067 0.674834 0.586440 0.207089
H36   H     H_    0.890696 0.656224 0.670673 0.192281
H37   H     H_    0.144658 0.382262 0.400827 0.151783
H38   H     H_    0.257801 0.382356 0.400377 0.153097
H39   H     H_    0.379646 0.675641 0.652364 0.203388
H40   H     H_    0.326028 0.643665 0.539777 0.186301
H41   H     H_    0.268090 0.676363 0.649603 0.194363
H42   H     H_    0.214140 0.644237 0.536861 0.211722
H43   H     H_    0.839936 0.369327 0.069757 0.163623
H44   H     H_    0.884333 0.299583 0.070047 0.161662
H45   H     H_    0.677100 0.122205 0.930111 0.162394
H46   H     H_    0.758922 0.124619 0.928870 0.162021
H47   H     H_    0.749045 0.194085 0.073461 0.162695
O1    O     O_R   0.447800 0.090170 0.500010 -0.567079
O2    O     O_R   0.909990 0.447840 0.500030 -0.586946
O3    O     O_R   0.939920 0.491910 0.379430 -0.580360
O4    O     O_R   0.939890 0.387530 0.379440 -0.583704
O5    O     O_R   0.090380 0.552160 0.499970 -0.588348
O6    O     O_R   0.090350 0.447780 0.499980 -0.582905
O7    O     O_R   0.060480 0.612470 0.620560 -0.584009
O8    O     O_R   0.060450 0.508090 0.620570 -0.577789
O9    O     O_R   0.625130 0.534920 0.569820 -0.589357
O10   O     O_R   0.555400 0.465140 0.430260 -0.587211
O11   O     O_R   0.534920 0.444720 0.569790 -0.585506
O12   O     O_R   0.552190 0.090170 0.499980 -0.589377
O13   O     O_R   0.465190 0.374940 0.430230 -0.590135
O14   O     O_R   0.444700 0.534860 0.569740 -0.581070
O15   O     O_R   0.374970 0.465080 0.430180 -0.590359
O16   O     O_R   0.534910 0.625060 0.569770 -0.589763
O17   O     O_R   0.465180 0.555280 0.430210 -0.583218
O18   O     O_R   0.508090 0.060280 0.620580 -0.578174
O19   O     O_R   0.612480 0.060280 0.620550 -0.585981
O20   O     O_R   0.447810 0.909830 0.500020 -0.588521
O21   O     O_R   0.552200 0.909830 0.499990 -0.586865
O22   O     O_R   0.387520 0.939720 0.379450 -0.566031
O23   O     O_R   0.491910 0.939720 0.379420 -0.583700
O24   O     O_R   0.910020 0.552220 0.500020 -0.585184
C69   C     C_2   0.310175 0.139532 0.401681 0.924970
O25   O     O_2   0.266309 0.077871 0.358886 -0.604248
O26   O     O_R   0.315397 0.195888 0.473498 -0.755381
H48   H     H_    0.279915 0.178831 0.483411 0.327163

loop_
_geom_bond_atom_site_label_1
_geom_bond_atom_site_label_2
_ccdc_geom_bond_type
Cu1   O18   S    
Cu2   O19   S    
C22   C29   S    
C47   O15   A    
Cu5   Cu6   S    
C54   C55   S    
C35   C36   A    
C3    C6    S    
C47   C62   S    
C7    C8    T    
C14   C46   S    
C53   C54   A    
C44   O10   A    
Cu6   O17   S    
C34   O23   A    
C26   C27   S    
C29   C30   T    
C40   O24   A    
C5    H45   S    
C45   H2    S    
C18   C24   S    
C41   O3    A    
C36   C37   A    
C38   H27   S    
C19   H13   S    
C46   O11   A    
C38   C39   S    
C1    O12   A    
C20   C25   S    
C44   O9    A    
C15   C16   S    
C49   C57   S    
C33   H24   S    
C1    O1    A    
C7    C68   S    
C21   C43   S    
C44   C53   S    
C57   H35   S    
Cu5   O14   S    
C16   C17   S    
C66   H43   S    
Cu6   O15   S    
Cu2   O12   S    
C12   O19   A    
C23   O21   A    
C27   H17   S    
C9    C10   A    
C26   H19   S    
Cu5   O11   S    
C59   C60   A    
Cu6   O10   S    
C65   H41   S    
C61   C62   A    
C56   C66   S    
C45   C68   S    
C5    C68   S    
C35   H25   S    
C69   O26   S    
C2    C45   S    
C34   O22   A    
Cu2   O21   S    
C64   H40   S    
C30   C34   S    
C55   H32   S    
C51   C52   A    
C41   O4    A    
Cu3   O3    S    
C43   O8    A    
C19   C22   S    
O26   H48   S    
C41   C67   S    
C19   H14   S    
C24   H21   S    
C5    H46   S    
C51   H30   S    
C56   C68   S    
C20   H16   S    
C31   C37   A    
C60   C61   A    
C25   C28   S    
C43   O7    A    
C45   H11   S    
C56   H33   S    
C4    H4    S    
C37   C38   S    
C46   O13   A    
C58   C65   S    
C31   C32   A    
C8    C12   S    
C62   C63   A    
C16   H8    S    
C50   C51   A    
C12   O18   A    
C27   H18   S    
Cu3   O5    S    
C18   H12   S    
C24   C25   S    
C11   H5    S    
C42   O6    A    
C48   O16   A    
C9    C17   S    
C6    C67   T    
Cu3   O24   S    
C21   C28   T    
C52   H31   S    
C22   C27   S    
C55   C57   S    
Cu4   O2    S    
C18   H20   S    
C65   H42   S    
Cu3   O7    S    
C58   C59   A    
C3    C66   S    
C3    C4    S    
C52   C53   A    
C39   H28   S    
C69   O25   D    
C1    C10   S    
Cu4   O8    S    
C58   C63   A    
C56   H22   S    
C40   O2    A    
Cu5   O9    S    
C64   H39   S    
C47   O14   A    
C18   C22   S    
Cu4   O6    S    
C4    C5    S    
C42   C59   S    
C57   H36   S    
C39   H29   S    
Cu1   O22   S    
C20   H15   S    
C55   H34   S    
Cu2   O23   S    
C48   O17   A    
Cu4   O4    S    
C32   C33   A    
C19   C20   S    
C17   C69   S    
C25   C26   S    
Cu3   Cu4   S    
C2    H3    S    
C23   C32   S    
C11   C13   A    
C38   H26   S    
Cu5   O16   S    
Cu1   O1    S    
C40   C50   S    
Cu6   O13   S    
C64   C65   S    
C16   H7    S    
C33   C35   A    
C31   C39   S    
C4    H47   S    
C36   C48   S    
C24   H10   S    
Cu1   Cu2   S    
C13   H6    S    
C10   C11   A    
C42   O5    A    
C26   H23   S    
C63   C64   S    
C49   C50   A    
C66   H44   S    
C60   H37   S    
C14   C15   A    
C23   O20   A    
C2    C3    S    
C17   H9    S    
C13   C14   A    
C61   H38   S    
Cu1   O20   S    
C2    H1    S    
C49   C54   A    
C9    C15   A    
