data_mof_unit_pretest_685.cif
_audit_creation_date              2012-12-10T16:48:48-0500
_audit_creation_method            fapswitch 2.2
_symmetry_space_group_name_H-M    P1
_symmetry_Int_Tables_number       1
_space_group_crystal_system       triclinic
_cell_length_a                    17.229672
_cell_length_b                    8.691681
_cell_length_c                    7.524161
_cell_angle_alpha                 103.652599
_cell_angle_beta                  89.506544
_cell_angle_gamma                 93.951687
_cell_volume                      1092.3046075

loop_
_atom_site_label
_atom_site_type_symbol
_atom_type_description
_atom_site_fract_x
_atom_site_fract_y
_atom_site_fract_z
_atom_type_partial_charge
C1    C     C_R   0.497729 0.199824 0.453197 0.912661
C2    C     C_R   0.502271 0.800175 0.546803 0.912660
C3    C     C_2   0.496172 0.031186 0.427847 -0.295580
C4    C     C_2   0.503828 0.968814 0.572153 -0.295580
C5    C     C_R   0.351453 0.496694 0.526161 0.840597
C6    C     C_R   0.648547 0.503306 0.473839 0.840596
C7    C     C_R   0.267276 0.487102 0.545561 -0.083916
C8    C     C_R   0.732724 0.512898 0.454439 -0.083915
C9    C     C_R   0.219080 0.373250 0.421563 -0.028524
C10   C     C_R   0.780920 0.626750 0.578438 -0.028524
C11   C     C_R   0.138535 0.382103 0.434252 -0.182187
C12   C     C_R   0.861464 0.617897 0.565748 -0.182187
C13   C     C_R   0.106076 0.500201 0.568511 0.150709
C14   C     C_R   0.893925 0.499799 0.431489 0.150709
C15   C     C_R   0.154066 0.605115 0.697567 -0.135860
C16   C     C_R   0.845934 0.394885 0.302433 -0.135860
C17   C     C_R   0.234308 0.599339 0.685443 -0.194928
C18   C     C_R   0.765692 0.400662 0.314557 -0.194928
C19   C     C_2   0.022034 0.516420 0.576045 -0.202841
C20   C     C_2   0.977966 0.483580 0.423956 -0.202841
Cu1   Cu    Cu3+1 0.508700 0.517250 0.683000 1.026413
Cu2   Cu    Cu3+1 0.491300 0.482750 0.317000 1.026413
H1    H     H_    0.729150 0.313882 0.218273 0.182022
H2    H     H_    0.270850 0.686118 0.781726 0.182022
H3    H     H_    0.003359 0.438886 0.290711 0.155756
H4    H     H_    0.996640 0.561115 0.709289 0.155756
H5    H     H_    0.129517 0.695251 0.803624 0.150646
H6    H     H_    0.870483 0.304750 0.196376 0.150646
H7    H     H_    0.898937 0.705771 0.658221 0.160351
H8    H     H_    0.101063 0.294229 0.341780 0.160351
H9    H     H_    0.488487 0.958134 0.289575 0.193121
H10   H     H_    0.511513 0.041866 0.710425 0.193121
N1    N     N_2   0.478180 0.456750 0.041980 -0.244324
N2    N     N_2   0.521820 0.543250 0.958020 -0.244324
O1    O     O_R   0.505650 0.286040 0.618880 -0.573109
O2    O     O_R   0.494350 0.713960 0.381120 -0.573109
O3    O     O_R   0.490960 0.256910 0.309800 -0.587331
O4    O     O_R   0.509040 0.743090 0.690200 -0.587332
O5    O     O_R   0.394600 0.516230 0.672450 -0.599464
O6    O     O_R   0.605400 0.483770 0.327550 -0.599464
O7    O     O_R   0.379910 0.487100 0.363380 -0.568085
O8    O     O_R   0.620090 0.512900 0.636620 -0.568085
C21   C     C_2   0.250357 0.240858 0.282945 0.855193
O9    O     O_2   0.215711 0.187613 0.137870 -0.597076
O10   O     O_R   0.317815 0.173115 0.320133 -0.760801
H11   H     H_    0.332770 0.083516 0.215420 0.340537
C22   C     C_2   0.749642 0.759141 0.717056 0.855194
O11   O     O_2   0.784288 0.812384 0.862133 -0.597075
O12   O     O_R   0.682185 0.826886 0.679868 -0.760800
H12   H     H_    0.667230 0.916483 0.784582 0.340537
C23   C     C_2   0.404398 0.397376 0.965541 1.137523
O13   O     O_2   0.395140 0.260488 0.875968 -0.616248
O14   O     O_R   0.340875 0.490967 0.007002 -0.763361
H13   H     H_    0.290362 0.432678 0.952910 0.328105
C24   C     C_2   0.595602 0.602623 0.034459 1.137523
O15   O     O_2   0.604860 0.739511 0.124032 -0.616248
O16   O     O_R   0.659125 0.509032 0.992998 -0.763361
H14   H     H_    0.709638 0.567321 0.047089 0.328106

loop_
_geom_bond_atom_site_label_1
_geom_bond_atom_site_label_2
_ccdc_geom_bond_type
C16   H6    S    
C2    C4    S    
C21   O9    D    
C19   H4    S    
Cu1   O1    S    
C14   C20   S    
C12   H7    S    
N1    C23   S    
C21   O10   S    
C2    O4    A    
C15   H5    S    
C19   C20   D    
Cu1   O5    S    
C1    O3    A    
C24   O15   D    
Cu2   O6    S    
Cu1   Cu2   S    
C13   C15   A    
N1    N2    D    
C3    C4    D    
N2    C24   S    
C22   O12   S    
C16   C18   A    
O10   H11   S    
C3    H9    S    
C9    C11   A    
O16   H14   S    
C4    H10   S    
C10   C12   A    
Cu2   N1    S    
C8    C10   A    
C12   C14   A    
C6    O6    A    
C24   O16   S    
C23   O13   D    
C14   C16   A    
C9    C21   S    
C17   H2    S    
C20   H3    S    
C13   C19   S    
C18   H1    S    
Cu2   O7    S    
C22   O11   D    
C7    C9    A    
C11   C13   A    
Cu2   O2    S    
C1    O1    A    
C15   C17   A    
O12   H12   S    
C6    O8    A    
C2    O2    A    
C10   C22   S    
C5    C7    S    
C5    O5    A    
C5    O7    A    
C6    C8    S    
Cu1   N2    S    
C23   O14   S    
O14   H13   S    
Cu2   O3    S    
C8    C18   A    
Cu1   O4    S    
Cu1   O8    S    
C11   H8    S    
C1    C3    S    
C7    C17   A    
