data_mof_unit_pretest_553.cif
_audit_creation_date              2012-10-26T21:01:03-0400
_audit_creation_method            fapswitch 2.2
_symmetry_space_group_name_H-M    P1
_symmetry_Int_Tables_number       1
_space_group_crystal_system       triclinic
_cell_length_a                    10.926239
_cell_length_b                    10.738679
_cell_length_c                    9.62252
_cell_angle_alpha                 90.313926
_cell_angle_beta                  89.129415
_cell_angle_gamma                 91.01895
_cell_volume                      1128.71856216

loop_
_atom_site_label
_atom_site_type_symbol
_atom_type_description
_atom_site_fract_x
_atom_site_fract_y
_atom_site_fract_z
_atom_type_partial_charge
Br1   Br    Br    0.876504 0.669756 0.282307 -0.460971
Br2   Br    Br    0.246333 0.846803 0.395531 -0.464705
C1    C     C_R   0.499601 0.262837 0.499997 0.547391
C2    C     C_R   0.433529 0.413618 0.074493 0.138859
C3    C     C_R   0.431754 0.415096 0.926112 0.138906
C4    C     C_R   0.265948 0.504673 0.501258 0.585106
C5    C     C_R   0.575270 0.579821 0.925895 0.172310
C6    C     C_3   0.574198 0.719440 0.921830 -0.075566
C7    C     C_3   0.570375 0.719368 0.079784 -0.240462
C8    C     C_R   0.499113 0.737171 0.500296 0.573867
C9    C     C_R   0.734490 0.497962 0.498662 0.564716
C10   C     C_2   0.937015 0.541304 0.400753 0.121289
C11   C     C_2   0.865343 0.476737 0.492812 0.063665
C12   C     C_R   0.496166 0.129531 0.502248 0.023369
C13   C     C_2   0.069281 0.525793 0.391620 -0.031191
C14   C     C_2   0.135047 0.519803 0.506881 -0.056285
C15   C     C_R   0.593117 0.065915 0.559160 0.049404
C16   C     C_2   0.361067 0.315345 0.145976 0.629340
C17   C     C_2   0.347690 0.327516 0.854600 0.631244
C18   C     C_2   0.690228 0.778520 0.864218 0.589608
C19   C     C_2   0.909620 0.368774 0.573839 0.508806
C20   C     C_R   0.390877 0.063873 0.460889 -0.093477
C21   C     C_R   0.389833 0.933688 0.459595 0.128835
C22   C     C_R   0.494593 0.870515 0.502344 0.023854
C23   C     C_R   0.592758 0.937436 0.557785 0.006885
C24   C     C_3   0.724721 0.933586 0.515095 -0.255281
C25   C     C_3   0.725638 0.074673 0.519817 -0.256627
C26   C     C_R   0.573673 0.580818 0.072770 0.143632
Cu1   Cu    Cu3+1 0.499990 0.499980 0.640670 1.079114
Cu2   Cu    Cu3+1 0.500010 0.500020 0.359330 1.055144
H1    H     H_    0.742137 0.118538 0.416608 0.172224
H2    H     H_    0.781697 0.113804 0.605509 0.191035
H3    H     H_    0.342012 0.131228 0.182022 0.349668
H4    H     H_    0.178164 0.294786 0.781391 0.346329
H5    H     H_    0.792653 0.935844 0.844737 0.346712
H6    H     H_    0.015395 0.216645 0.578809 0.344175
H7    H     H_    0.489816 0.757060 0.875891 0.139100
H8    H     H_    0.653066 0.759935 0.129879 0.192555
H9    H     H_    0.482264 0.753882 0.123078 0.168191
H10   H     H_    0.113014 0.527918 0.289536 0.217605
H11   H     H_    0.091687 0.528555 0.608803 0.149978
H12   H     H_    0.311183 0.113492 0.427311 0.160982
H13   H     H_    0.782941 0.891570 0.595128 0.192841
H14   H     H_    0.738103 0.895415 0.408413 0.186196
N1    N     N_R   0.500780 0.500930 0.147930 -0.276813
N2    N     N_R   0.500780 0.500890 0.852020 -0.289818
O1    O     O_R   0.500000 0.319640 0.618810 -0.472498
O2    O     O_R   0.404970 0.193900 0.145891 -0.657077
O3    O     O_2   0.378570 0.220150 0.833100 -0.471420
O4    O     O_R   0.228414 0.363709 0.826623 -0.660157
O5    O     O_2   0.765647 0.716208 0.801001 -0.476423
O6    O     O_R   0.710865 0.906102 0.884441 -0.663784
O7    O     O_2   0.869902 0.349822 0.691489 -0.470876
O8    O     O_R   0.993301 0.286472 0.513812 -0.695375
O9    O     O_R   0.500010 0.319680 0.381230 -0.492170
O10   O     O_R   0.321940 0.499980 0.618760 -0.479847
O11   O     O_R   0.321950 0.500020 0.381180 -0.470823
O12   O     O_R   0.499990 0.680320 0.618770 -0.511124
O13   O     O_R   0.500000 0.680360 0.381190 -0.496666
O14   O     O_R   0.678050 0.499980 0.618820 -0.444101
O15   O     O_R   0.678060 0.500020 0.381240 -0.479729
O16   O     O_2   0.258268 0.336765 0.190461 -0.489670

loop_
_geom_bond_atom_site_label_1
_geom_bond_atom_site_label_2
_ccdc_geom_bond_type
Br1   C10   S    
C21   C22   A    
Cu1   O14   S    
C22   C23   A    
Cu1   Cu2   S    
C3    C17   S    
Cu1   O10   S    
C3    N2    A    
C17   O3    D    
Cu2   N1    S    
C12   C15   A    
C10   C13   S    
Cu1   N2    S    
C2    C16   S    
Cu2   O13   S    
C12   C20   A    
C8    O13   A    
C23   C24   S    
C11   C19   S    
C5    C6    S    
C18   O6    S    
C20   H12   S    
Cu1   O12   S    
C19   O7    D    
C9    C11   S    
C4    O11   A    
C24   C25   S    
C6    C18   S    
C1    C12   S    
C1    O9    A    
Cu1   O1    S    
C2    C3    A    
C24   H14   S    
C1    O1    A    
C7    H8    S    
C8    O12   A    
C24   H13   S    
C18   O5    D    
C2    N1    A    
C19   O8    S    
C26   N1    A    
C13   H10   S    
H4    O4    S    
H6    O8    S    
C6    H7    S    
C4    C14   S    
C13   C14   D    
C15   C25   S    
C5    N2    A    
C17   O4    S    
C7    H9    S    
C10   C11   D    
Cu2   O9    S    
Cu2   O15   S    
C4    O10   A    
Br2   C21   S    
H3    O2    S    
C15   C23   A    
C20   C21   A    
H5    O6    S    
C8    C22   S    
C25   H2    S    
C25   H1    S    
C14   H11   S    
C16   O16   D    
C5    C26   A    
C9    O14   A    
C7    C26   S    
Cu2   O11   S    
C6    C7    S    
C9    O15   A    
C16   O2    S    
