data_mof_unit_pretest_313.cif
_audit_creation_date              2013-03-05T16:44:37-0500
_audit_creation_method            fapswitch 2.2
_symmetry_space_group_name_H-M    P1
_symmetry_Int_Tables_number       1
_space_group_crystal_system       triclinic
_cell_length_a                    27.218224
_cell_length_b                    10.669409
_cell_length_c                    9.941624
_cell_angle_alpha                 90.015714
_cell_angle_beta                  90.398431
_cell_angle_gamma                 91.715317
_cell_volume                      2885.70728798

loop_
_atom_site_label
_atom_site_type_symbol
_atom_site_description
_atom_site_fract_x
_atom_site_fract_y
_atom_site_fract_z
_atom_type_partial_charge
O1    O     O_R   0.500010 0.316790 0.614690 -0.618299
O2    O     O_R   0.500000 0.316760 0.385350 -0.645603
C1    C     C_R   0.503324 0.260632 0.499648 0.845699
O3    O     O_R   0.428760 0.500040 0.614660 -0.612469
O4    O     O_R   0.428750 0.500000 0.385310 -0.606354
C2    C     C_R   0.405956 0.497790 0.499745 0.962843
Zn1   Zn    Zn3+2 0.500000 0.500020 0.653130 0.967071
Zn2   Zn    Zn3+2 0.500000 0.499980 0.346870 0.984882
O5    O     O_R   0.500000 0.683240 0.614650 -0.616832
O6    O     O_R   0.499990 0.683210 0.385310 -0.606148
O7    O     O_R   0.571250 0.500000 0.614690 -0.648012
O8    O     O_R   0.571240 0.499960 0.385340 -0.602078
C3    C     C_R   0.501911 0.739735 0.500239 0.945159
C4    C     C_R   0.594499 0.496356 0.500726 0.844716
C5    C     C_R   0.176600 0.333641 0.461159 0.571436
O9    O     O_2   0.198132 0.329537 0.339507 -0.506800
N1    N     N_R   0.203426 0.377101 0.568629 -0.337116
C6    C     C_R   0.183020 0.395430 0.691730 0.586645
C7    C     C_R   0.270227 0.530754 0.540309 -0.222117
C8    C     C_R   0.319369 0.564009 0.517324 -0.077550
C9    C     C_R   0.337593 0.339470 0.505963 -0.015530
C10   C     C_R   0.288269 0.308164 0.535581 0.072255
C11   C     C_R   0.254702 0.405173 0.550568 0.287091
C12   C     C_R   0.103638 0.330598 0.598592 -0.089985
C13   C     C_R   0.126732 0.298704 0.476354 -0.014987
C14   C     C_R   0.098366 0.241667 0.371390 -0.023357
C15   C     C_R   0.131937 0.376489 0.709532 -0.085769
C16   C     C_R   0.353424 0.467804 0.501365 -0.091088
C17   C     C_R   0.648114 0.477297 0.507393 -0.103794
C18   C     C_R   0.971684 0.257701 0.514073 0.056524
C19   C     C_R   0.977733 0.398663 0.708501 0.023909
C20   C     C_R   0.949229 0.337991 0.607304 0.025212
C21   C     C_R   0.941136 0.176420 0.434640 0.070146
C22   C     C_R   0.890542 0.193823 0.430064 -0.188037
C23   C     C_R   0.869446 0.289283 0.504641 -0.039118
C24   C     C_R   0.898440 0.360240 0.596438 -0.077288
C25   C     C_R   0.876984 0.454681 0.674962 -0.057023
C26   C     C_R   0.827001 0.480270 0.651302 0.504350
N2    N     N_R   0.799917 0.410577 0.560231 -0.337176
C27   C     C_R   0.819613 0.313996 0.490793 0.554198
C28   C     C_R   0.731335 0.477897 0.415963 0.090840
C29   C     C_R   0.680442 0.494448 0.396856 -0.101311
C30   C     C_R   0.667341 0.438074 0.631781 -0.180996
C31   C     C_R   0.716817 0.416357 0.647636 -0.137631
C32   C     C_R   0.748968 0.436353 0.541036 0.314274
O10   O     O_2   0.790913 0.242433 0.408143 -0.556861
C33   C     C_R   0.023567 0.266404 0.502126 0.083183
C34   C     C_R   0.051885 0.321115 0.607987 0.029895
C35   C     C_R   0.028308 0.372435 0.720483 0.005258
C36   C     C_R   0.047496 0.230650 0.383999 -0.268070
H1    H     H_    0.867973 0.132648 0.366352 0.191939
H2    H     H_    0.026866 0.198752 0.296783 0.156707
O11   O     O_2   0.212386 0.434203 0.794202 -0.534084
C37   C     C_R   0.107917 0.400664 0.833130 0.066490
H3    H     H_    0.243328 0.602970 0.550865 0.145727
C38   C     C_R   0.956009 0.491700 0.786461 -0.152308
C39   C     C_R   0.906789 0.520916 0.770798 0.104169
O12   O     O_2   0.805322 0.574243 0.716697 -0.575839
C40   C     C_R   0.056351 0.398061 0.838124 0.089273
H4    H     H_    0.977771 0.550114 0.854313 0.174975
H5    H     H_    0.643918 0.421081 0.717875 0.204903
H6    H     H_    0.730363 0.383398 0.743647 0.165916
C41   C     C_R   0.504177 0.064322 0.619867 0.128550
C42   C     C_R   0.511847 0.129325 0.500055 -0.137695
C43   C     C_R   0.529360 0.064412 0.385992 0.079846
C44   C     C_R   0.528314 0.934349 0.388525 -0.177379
H7    H     H_    0.538436 0.883522 0.299040 0.166776
C45   C     C_R   0.510632 0.871370 0.502608 -0.141537
C46   C     C_R   0.503998 0.936712 0.621536 0.079213
C47   C     C_3   0.463047 0.927467 0.720557 -0.350646
C48   C     C_3   0.462801 0.069293 0.717678 -0.510427
H8    H     H_    0.429016 0.882408 0.677868 0.251500
H9    H     H_    0.475358 0.889427 0.818860 0.229196
H10   H     H_    0.428781 0.105727 0.671616 0.216482
H11   H     H_    0.474310 0.113263 0.814749 0.207076
C49   C     C_R   0.463855 0.436943 0.070216 0.016551
N3    N     N_R   0.499670 0.499140 0.142800 -0.108890
C50   C     C_R   0.535510 0.564764 0.071418 0.257618
C51   C     C_R   0.536734 0.559351 0.928039 0.022834
N4    N     N_R   0.499670 0.499180 0.857150 -0.130987
C52   C     C_R   0.463606 0.437917 0.928647 0.050379
C53   C     C_3   0.408731 0.455347 0.920798 -0.164168
C54   C     C_3   0.408983 0.453741 0.077258 -0.184817
N5    N     N_3   0.371063 0.238885 0.485973 -0.493418
H12   H     H_    0.360795 0.193280 0.396608 0.207161
H13   H     H_    0.407021 0.270761 0.471461 0.176066
N6    N     N_3   0.134262 0.428792 0.955603 -0.449580
H14   H     H_    0.153185 0.514952 0.946122 0.246831
H15   H     H_    0.158424 0.356902 0.976647 0.264722
N7    N     N_3   0.889005 0.619019 0.854344 -0.447086
H16   H     H_    0.877516 0.692786 0.793771 0.239206
H17   H     H_    0.860017 0.583627 0.912892 0.237127
N8    N     N_3   0.032502 0.411109 0.965621 -0.462001
H18   H     H_    0.043879 0.339322 0.029134 0.193067
H19   H     H_    0.043845 0.496862 0.008350 0.200451
N9    N     N_3   0.546235 0.125626 0.265770 -0.437232
H20   H     H_    0.572102 0.196198 0.291464 0.233983
H21   H     H_    0.516383 0.164200 0.215719 0.211915
C55   C     C_2   0.272904 0.173712 0.554417 0.509315
H22   H     H_    0.295862 0.099388 0.519126 0.072905
O13   O     O_2   0.235157 0.143443 0.613202 -0.551642
N10   N     N_3   0.569627 0.650377 0.137098 -0.388923
H23   H     H_    0.562028 0.659026 0.237719 0.227863
H24   H     H_    0.563877 0.739870 0.098214 0.154588
C56   C     C_2   0.576319 0.628667 0.855866 0.424183
H25   H     H_    0.568327 0.682234 0.766816 0.106727
O14   O     O_2   0.618776 0.627042 0.896210 -0.559291
C57   C     C_2   0.392926 0.578586 0.859563 0.516378
H26   H     H_    0.354618 0.590267 0.832600 0.081217
O15   O     O_2   0.421998 0.666634 0.843939 -0.567237
C58   C     C_2   0.383014 0.344937 0.852649 0.388113
H27   H     H_    0.404069 0.275644 0.800769 0.070628
O16   O     O_2   0.338236 0.333717 0.853424 -0.497729
C59   C     C_2   0.393155 0.575877 0.140929 0.547561
H28   H     H_    0.355213 0.585354 0.171252 0.089683
O17   O     O_2   0.421714 0.665596 0.154590 -0.522759
C60   C     C_2   0.384156 0.340817 0.142560 0.394138
H29   H     H_    0.405832 0.264402 0.180341 0.060286
O18   O     O_2   0.339463 0.333669 0.152445 -0.506758
C61   C     C_2   0.119464 0.185243 0.249085 0.528427
H30   H     H_    0.100562 0.193256 0.153134 0.016641
O19   O     O_2   0.155888 0.121416 0.256049 -0.491286
C62   C     C_2   0.662647 0.525723 0.260878 0.431236
H31   H     H_    0.672932 0.615254 0.215853 0.080755
O20   O     O_2   0.638920 0.448071 0.195270 -0.518981
N11   N     N_3   0.765599 0.500959 0.309039 -0.438213
H32   H     H_    0.755835 0.442872 0.227855 0.226869
H33   H     H_    0.762982 0.594282 0.278503 0.173834
N12   N     N_3   0.960242 0.068971 0.368624 -0.461178
H34   H     H_    0.943233 0.988662 0.409609 0.202288
H35   H     H_    0.950378 0.072850 0.266857 0.183529
C63   C     C_2   0.332935 0.700101 0.511671 0.384765
H36   H     H_    0.305809 0.768617 0.537248 0.088793
O21   O     O_2   0.373626 0.738040 0.476723 -0.573463

loop_
_geom_bond_atom_site_label_1
_geom_bond_atom_site_label_2
_geom_bond_distance
_ccdc_geom_bond_type
C44   C45   1.399327 A    
N6    H14   1.044799 S    
N8    H18   1.045442 S    
C17   C29   1.421013 A    
C50   N10   1.436486 S    
C28   C29   1.413183 A    
C7    C11   1.396784 A    
C7    C8    1.393941 A    
C12   C15   1.419431 A    
C59   H28   1.085446 S    
C15   C37   1.422997 A    
C62   H31   1.084981 S    
N3    C50   1.383645 A    
C57   H26   1.085574 S    
Zn1   O7    1.979206 S    
C56   O14   1.221216 D    
C22   H1    1.083936 S    
N11   H32   1.045476 S    
C20   C24   1.413003 A    
C24   C25   1.416654 A    
C19   C35   1.417129 A    
C60   O18   1.221242 D    
C37   N6    1.435799 S    
O7    C4    1.302704 A    
C62   O20   1.220953 D    
C21   N12   1.433688 S    
C5    O9    1.348867 S    
C38   C39   1.392224 A    
C51   C56   1.478497 S    
C5    N1    1.363200 A    
C22   C23   1.399027 A    
O5    C3    1.288067 A    
C6    O11   1.347775 S    
C26   O12   1.347794 S    
C43   N9    1.433926 S    
C2    C16   1.456005 S    
C33   C34   1.415595 A    
C57   O15   1.220688 D    
C63   H36   1.085827 S    
N9    H21   1.044848 S    
C36   H2    1.079147 S    
C47   C48   1.513691 S    
C53   C57   1.521604 S    
C19   C38   1.405965 A    
C18   C20   1.416081 A    
N2    C32   1.433300 S    
C44   H7    1.083289 S    
N8    H19   1.045905 S    
C9    C10   1.406873 A    
C17   C30   1.408054 A    
C54   C59   1.523590 S    
C46   C47   1.493288 S    
C8    C63   1.488657 S    
O3    Zn1   1.973779 S    
C49   C54   1.511653 S    
C61   O19   1.221033 D    
C29   C62   1.474527 S    
C52   C53   1.512106 S    
C33   C36   1.405040 A    
C37   C40   1.404196 A    
C26   N2    1.368795 A    
C39   N7    1.433605 S    
C6    C15   1.411369 A    
C58   H27   1.081808 S    
C12   C34   1.412953 A    
C41   C46   1.361494 A    
C18   C33   1.418230 A    
C12   C13   1.418076 A    
O3    C2    1.296241 A    
N2    C27   1.365148 A    
C50   C51   1.427239 A    
C45   C46   1.388033 A    
C8    C16   1.413097 A    
C31   H6    1.083383 S    
C13   C14   1.419738 A    
C1    C42   1.426883 S    
C41   C42   1.392336 A    
O1    C1    1.295953 A    
C23   C24   1.408055 A    
C27   O10   1.350319 S    
C30   C31   1.381222 A    
C25   C26   1.413682 A    
O4    Zn2   1.979208 S    
N7    H17   1.045265 S    
C19   C20   1.411332 A    
C9    N5    1.442922 S    
Zn2   O8    1.973779 S    
N9    H20   1.045716 S    
C47   H9    1.111715 S    
N1    C6    1.363928 A    
C58   O16   1.221157 D    
N1    C11   1.431157 S    
N5    H12   1.045160 S    
N10   H24   1.045920 S    
C63   O21   1.220572 D    
C34   C35   1.411776 A    
C55   O13   1.220649 D    
C9    C16   1.423930 A    
C41   C48   1.495153 S    
C53   C54   1.555538 S    
N6    H15   1.045452 S    
Zn2   N3    2.028761 S    
C4    C17   1.480433 S    
C61   H30   1.085268 S    
C30   H5    1.082899 S    
N12   H34   1.045758 S    
C7    H3    1.084216 S    
Zn1   O5    1.992031 S    
N11   H33   1.045361 S    
C10   C55   1.494373 S    
C18   C21   1.419277 A    
O1    Zn1   1.991864 S    
C28   N11   1.435431 S    
O2    Zn2   1.992032 S    
C31   C32   1.391491 A    
N5    H13   1.037517 S    
N4    C52   1.366598 A    
O6    C3    1.291839 A    
C49   C52   1.407435 A    
C48   H10   1.110838 S    
C59   O17   1.221852 D    
C56   H25   1.078316 S    
C35   C40   1.414248 A    
C55   H22   1.083963 S    
C42   C43   1.421133 A    
C54   C60   1.512448 S    
C14   C36   1.392607 A    
O2    C1    1.288486 A    
O8    C4    1.307497 A    
C60   H29   1.086161 S    
C53   C58   1.510063 S    
C48   H11   1.111885 S    
C49   N3    1.364761 A    
N7    H16   1.045112 S    
O4    C2    1.299504 A    
C21   C22   1.395465 A    
C23   C27   1.395361 A    
N10   H23   1.027594 S    
C5    C13   1.405932 A    
C51   N4    1.370273 A    
C38   H4    1.080016 S    
Zn2   O6    1.991863 S    
C43   C44   1.387374 A    
C14   C61   1.483450 S    
C28   C32   1.406298 A    
C10   C11   1.409499 A    
C47   H8    1.112191 S    
C40   N8    1.436714 S    
C25   C39   1.421207 A    
Zn1   N4    2.028394 S    
N12   H35   1.046082 S    
C3    C45   1.417522 S    
