data_mof_unit_pretest_556.cif
_audit_creation_date              2013-03-05T16:31:37-0500
_audit_creation_method            fapswitch 2.2
_symmetry_space_group_name_H-M    P1
_symmetry_Int_Tables_number       1
_space_group_crystal_system       triclinic
_cell_length_a                    9.572734
_cell_length_b                    10.871635
_cell_length_c                    15.601275
_cell_angle_alpha                 88.349632
_cell_angle_beta                  72.028978
_cell_angle_gamma                 91.441462
_cell_volume                      1542.80084786

loop_
_atom_site_label
_atom_site_type_symbol
_atom_site_description
_atom_site_fract_x
_atom_site_fract_y
_atom_site_fract_z
_atom_type_partial_charge
O1    O     O_R   0.118810 0.319640 0.500000 -0.592573
O2    O     O_R   0.881230 0.319680 0.499990 -0.542496
C1    C     C_R   0.997144 0.262518 0.502871 0.827398
O3    O     O_R   0.055580 0.499970 0.629840 -0.580489
O4    O     O_R   0.818000 0.500010 0.629830 -0.543234
C2    C     C_R   0.915604 0.508495 0.671790 0.814696
Cu1   Cu    Cu3+1 0.140670 0.499980 0.500000 0.984031
Cu2   Cu    Cu3+1 0.859330 0.500020 0.500000 1.029115
O5    O     O_R   0.118770 0.680320 0.500010 -0.577647
O6    O     O_R   0.881190 0.680360 0.500000 -0.591864
O7    O     O_R   0.182000 0.499990 0.370170 -0.576847
O8    O     O_R   0.944420 0.500030 0.370160 -0.585712
C3    C     C_R   0.001021 0.737888 0.500159 0.830057
C4    C     C_R   0.084570 0.501117 0.327570 0.839761
C5    C     C_R   0.864580 0.548136 0.765691 -0.081600
C6    C     C_R   0.132694 0.504994 0.228358 -0.127345
C7    C     C_R   0.902514 0.668818 0.885649 -0.082382
C8    C     C_R   0.958492 0.614082 0.802539 -0.152824
C9    C     C_R   0.713979 0.540069 0.812458 -0.100908
C10   C     C_R   0.654272 0.601497 0.892864 0.104608
C11   C     C_R   0.751156 0.659991 0.932214 0.116483
C12   C     C_R   0.500813 0.598900 0.937813 -0.074712
C13   C     C_R   0.450838 0.622919 0.030839 -0.047382
C14   C     C_R   0.545083 0.696024 0.065798 0.290830
C15   C     C_R   0.694907 0.711431 0.016334 -0.212211
C16   C     C_R   0.394974 0.574202 0.893464 0.336765
C17   C     C_R   0.255246 0.528798 0.944468 -0.213548
C18   C     C_R   0.214508 0.519691 0.038854 -0.041589
C19   C     C_R   0.310581 0.571325 0.083406 0.079726
C20   C     C_R   0.080000 0.459911 0.089793 0.364536
C21   C     C_R   0.039708 0.455799 0.183628 -0.235249
C22   C     C_R   0.269428 0.558337 0.178383 -0.123606
H1    H     H_    0.767840 0.765153 0.043006 0.192640
H2    H     H_    0.343643 0.587162 0.214410 0.165849
H3    H     H_    0.935631 0.411271 0.221888 0.187242
H4    H     H_    0.178333 0.502000 0.909678 0.225658
H5    H     H_    0.977466 0.717710 0.913592 0.154671
H6    H     H_    0.073882 0.626889 0.765748 0.204150
H7    H     H_    0.643136 0.486129 0.785157 0.210949
C23   C     C_R   0.103370 0.066325 0.530424 0.052188
C24   C     C_R   0.989460 0.129384 0.512714 -0.062309
C25   C     C_R   0.868184 0.061095 0.504440 -0.125908
H8    H     H_    0.774878 0.106034 0.493993 0.200028
C26   C     C_R   0.870917 0.932969 0.503069 -0.160810
C27   C     C_R   0.997290 0.871343 0.506084 -0.042851
C28   C     C_R   0.110792 0.940609 0.522456 0.027206
C29   C     C_3   0.274864 0.950526 0.478887 0.123174
C30   C     C_3   0.265535 0.087998 0.493570 -0.448502
H9    H     H_    0.338080 0.902395 0.517882 0.105460
C31   C     C_R   0.611842 0.543682 0.426395 0.165883
N1    N     N_R   0.648210 0.500930 0.499430 -0.244368
C32   C     C_R   0.537376 0.437664 0.566397 0.437564
C33   C     C_R   0.388781 0.440835 0.566744 -0.058505
N2    N     N_R   0.352300 0.500890 0.499430 -0.221930
C34   C     C_R   0.464950 0.542728 0.426272 0.172047
C35   C     C_3   0.483364 0.668370 0.384467 -0.337712
C36   C     C_3   0.642353 0.669537 0.383581 -0.417844
H10   H     H_    0.469291 0.668550 0.316643 0.237206
H11   H     H_    0.416298 0.732986 0.432003 0.215896
N3    N     N_R   0.987002 0.395823 0.047969 0.119510
O9    O     O_R   0.943647 0.282546 0.073680 -0.301229
O10   O     O_R   0.921410 0.456573 0.999560 -0.380885
H12   H     H_    0.776745 0.883478 0.495043 0.164381
N4    N     N_R   0.325064 0.927779 0.382170 0.145277
O11   O     O_R   0.239836 0.874489 0.342514 -0.313823
O12   O     O_R   0.458520 0.961679 0.334866 -0.283415
H13   H     H_    0.313651 0.117852 0.546311 0.192092
H14   H     H_    0.299366 0.146790 0.430494 0.234717
N5    N     N_R   0.568398 0.360772 0.633916 0.129531
O13   O     O_R   0.486032 0.366881 0.717160 -0.352623
O14   O     O_R   0.631444 0.257514 0.609986 -0.373791
H15   H     H_    0.303251 0.393042 0.620330 0.188511
H16   H     H_    0.721975 0.669749 0.314487 0.220082
H17   H     H_    0.666782 0.738413 0.428465 0.207768
N6    N     N_R   0.487472 0.772141 0.141670 0.114685
O15   O     O_R   0.358885 0.818911 0.155579 -0.277589
O16   O     O_R   0.574703 0.817523 0.183229 -0.315487
N7    N     N_R   0.420837 0.611987 0.800210 0.127921
O17   O     O_R   0.514225 0.702254 0.763835 -0.352940
O18   O     O_R   0.331730 0.574623 0.757319 -0.383553

loop_
_geom_bond_atom_site_label_1
_geom_bond_atom_site_label_2
_geom_bond_distance
_ccdc_geom_bond_type
C5    C8    1.401040 A    
C34   C35   1.479132 S    
C24   C25   1.403667 A    
C9    C10   1.404032 A    
Cu1   Cu2   2.693203 S    
C29   H9    1.111261 S    
C33   N2    1.359930 A    
C26   C27   1.410181 A    
C6    C21   1.395061 A    
Cu1   O7    1.940289 S    
C16   C17   1.397613 A    
C16   N7    1.443923 S    
C13   C19   1.430395 A    
C18   C19   1.426542 A    
C19   C22   1.412689 A    
O4    C2    1.298704 A    
O7    C4    1.301676 A    
N7    O18   1.300308 A    
C35   C36   1.517480 S    
N3    O10   1.298304 A    
C36   H16   1.111624 S    
N5    O14   1.297302 A    
O5    C3    1.302381 A    
C32   N5    1.432274 S    
C2    C5    1.475076 S    
N2    C34   1.363227 A    
C20   N3    1.434290 S    
C13   C14   1.426741 A    
C25   C26   1.394493 A    
O3    Cu1   1.936139 S    
C7    C8    1.397937 A    
C26   H12   1.080270 S    
N1    C32   1.388591 A    
C14   C15   1.406444 A    
O3    C2    1.304219 A    
C29   N4    1.465912 S    
N7    O17   1.301926 A    
C27   C28   1.397864 A    
C7    C11   1.405622 A    
N3    O9    1.301095 A    
O1    C1    1.293815 A    
N4    O12   1.300553 A    
C36   H17   1.108214 S    
C5    C9    1.399747 A    
N6    O15   1.301476 A    
C29   C30   1.519190 S    
Cu2   O8    1.936139 S    
C31   N1    1.363071 A    
C7    H5    1.083771 S    
C30   H14   1.112872 S    
N6    O16   1.301107 A    
Cu2   N1    2.024030 S    
C9    H7    1.076032 S    
C23   C24   1.395700 A    
C10   C12   1.418332 A    
C4    C6    1.471411 S    
C25   H8    1.081779 S    
C23   C28   1.377569 A    
C32   C33   1.422089 A    
Cu1   O5    1.977003 S    
C11   C15   1.395138 A    
C28   C29   1.506310 S    
C1    C24   1.448712 S    
O1    Cu1   1.966485 S    
C31   C36   1.486757 S    
O2    Cu2   1.977002 S    
O8    C4    1.300094 A    
O6    C3    1.293363 A    
O4    Cu2   1.940286 S    
C14   N6    1.437572 S    
C17   H4    1.080035 S    
C6    C22   1.401246 A    
C31   C34   1.406534 A    
C35   H11   1.102066 S    
N4    O11   1.300921 A    
C18   C20   1.417248 A    
O2    C1    1.297428 A    
C8    H6    1.079531 S    
C3    C27   1.457100 S    
C20   C21   1.393139 A    
C35   H10   1.107109 S    
C21   H3    1.084150 S    
C30   H13   1.111867 S    
N5    O13   1.299406 A    
C10   C11   1.409108 A    
Cu2   O6    1.966485 S    
C12   C16   1.416666 A    
C15   H1    1.083715 S    
C17   C18   1.401992 A    
C12   C13   1.415300 A    
Cu1   N2    2.022926 S    
C33   H15   1.081869 S    
C23   C30   1.489621 S    
C22   H2    1.078977 S    
