data_mof_unit_pretest_71.cif
_audit_creation_date              2012-12-11T17:36:11-0500
_audit_creation_method            fapswitch 2.2
_symmetry_space_group_name_H-M    P1
_symmetry_Int_Tables_number       1
_space_group_crystal_system       triclinic
_cell_length_a                    25.783352
_cell_length_b                    6.89851
_cell_length_c                    21.76611
_cell_angle_alpha                 89.980345
_cell_angle_beta                  96.405904
_cell_angle_gamma                 89.985407
_cell_volume                      3847.29423596

loop_
_atom_site_label
_atom_site_type_symbol
_atom_type_description
_atom_site_fract_x
_atom_site_fract_y
_atom_site_fract_z
_atom_type_partial_charge
O1    O     O_R   0.208650 0.594520 0.175450 -0.532740
O2    O     O_R   0.791350 0.405480 0.824550 -0.532742
O3    O     O_R   0.291350 0.094520 0.324550 -0.532845
O4    O     O_R   0.708650 0.905480 0.675450 -0.532849
O5    O     O_R   0.192980 0.260780 0.300160 -0.544247
O6    O     O_R   0.807020 0.739220 0.699840 -0.544247
O7    O     O_R   0.307020 0.760780 0.199840 -0.544223
O8    O     O_R   0.692980 0.239220 0.800160 -0.544224
C1    C     C_R   0.178503 0.432281 0.318098 0.702459
C2    C     C_R   0.821496 0.567718 0.681902 0.702458
C3    C     C_R   0.321491 0.932286 0.181895 0.702477
C4    C     C_R   0.678509 0.067714 0.818106 0.702478
O9    O     O_R   0.202550 0.264660 0.174420 -0.536998
O10   O     O_R   0.797450 0.735340 0.825580 -0.536997
O11   O     O_R   0.297450 0.764660 0.325580 -0.536886
O12   O     O_R   0.702550 0.235340 0.674420 -0.536882
O13   O     O_R   0.300990 0.096480 0.197920 -0.536625
O14   O     O_R   0.699010 0.903520 0.802080 -0.536624
O15   O     O_R   0.199010 0.596480 0.302080 -0.536563
O16   O     O_R   0.800990 0.403520 0.697920 -0.536561
C5    C     C_R   0.190954 0.433787 0.151103 0.719153
C6    C     C_R   0.809046 0.566214 0.848898 0.719152
C7    C     C_R   0.309060 0.933683 0.348891 0.719161
C8    C     C_R   0.690940 0.066317 0.651108 0.719166
O17   O     O_3   0.282290 0.427760 0.257860 -0.364806
O18   O     O_3   0.717710 0.572240 0.742140 -0.364808
O19   O     O_3   0.217710 0.927760 0.242140 -0.364772
O20   O     O_3   0.782290 0.072240 0.757860 -0.364771
V1    V     V_3+5 0.244010 0.152080 0.248540 1.407931
V2    V     V_3+5 0.755990 0.847920 0.751460 1.407931
V3    V     V_3+5 0.255990 0.652080 0.251460 1.408105
V4    V     V_3+5 0.744010 0.347920 0.748540 1.408103
C9    C     C_R   0.659143 0.057388 0.590157 -0.084607
C10   C     C_R   0.340859 0.942604 0.409842 -0.084604
C11   C     C_R   0.840820 0.556764 0.909854 -0.084535
C12   C     C_R   0.159180 0.443242 0.090146 -0.084535
C13   C     C_R   0.650428 0.065217 0.477141 0.168523
C14   C     C_R   0.349576 0.934779 0.522857 0.168523
C15   C     C_R   0.849350 0.557602 0.022892 0.168551
C16   C     C_R   0.150651 0.442464 0.977109 0.168550
C17   C     C_R   0.682545 0.069019 0.534656 0.157107
C18   C     C_R   0.317458 0.931000 0.465343 0.157109
C19   C     C_R   0.817309 0.564212 0.965348 0.156946
C20   C     C_R   0.182691 0.435811 0.034652 0.156942
C21   C     C_R   0.604942 0.036955 0.588401 -0.270827
C22   C     C_R   0.395061 0.962998 0.411596 -0.270829
C23   C     C_R   0.895081 0.538593 0.911614 -0.270681
C24   C     C_R   0.104918 0.461425 0.088386 -0.270679
C25   C     C_R   0.571725 0.027371 0.531893 0.053617
C26   C     C_R   0.428282 0.972497 0.468103 0.053617
C27   C     C_R   0.928251 0.526880 0.968117 0.053622
C28   C     C_R   0.071749 0.473190 0.031883 0.053621
C29   C     C_R   0.595212 0.043257 0.476026 0.083738
C30   C     C_R   0.404795 0.956614 0.523970 0.083738
C31   C     C_R   0.904623 0.537571 0.024002 0.083744
C32   C     C_R   0.095379 0.462527 0.975999 0.083745
C33   C     C_R   0.515874 0.003239 0.529188 0.082066
C34   C     C_R   0.484135 0.996567 0.470807 0.082066
C35   C     C_R   0.984176 0.505141 0.970804 0.082056
C36   C     C_R   0.015825 0.494953 0.029196 0.082055
C37   C     C_R   0.509338 0.014777 0.416959 -0.189141
C38   C     C_R   0.490673 0.984942 0.583034 -0.189146
C39   C     C_R   0.990455 0.507330 0.083076 -0.189044
C40   C     C_R   0.009547 0.492813 0.916925 -0.189042
C41   C     C_R   0.562968 0.036780 0.419549 -0.187786
C42   C     C_R   0.437044 0.962968 0.580446 -0.187786
C43   C     C_R   0.936775 0.527637 0.080493 -0.187770
C44   C     C_R   0.063228 0.472523 0.919507 -0.187767
H1    H     H_    0.578620 0.048546 0.375661 0.140082
H2    H     H_    0.421395 0.951125 0.624333 0.140082
H3    H     H_    0.921003 0.535045 0.124397 0.140052
H4    H     H_    0.079001 0.465177 0.875602 0.140050
H5    H     H_    0.409858 0.970698 0.367346 0.109295
H6    H     H_    0.590142 0.029299 0.632650 0.109295
H7    H     H_    0.090054 0.466275 0.132634 0.109164
H8    H     H_    0.909945 0.533705 0.867366 0.109165
H9    H     H_    0.488824 0.012938 0.371152 0.124549
H10   H     H_    0.511191 0.986670 0.628841 0.124552
H11   H     H_    0.010865 0.501926 0.128908 0.124460
H12   H     H_    0.989140 0.498270 0.871092 0.124459
C45   C     C_R   0.438723 0.813214 0.093240 -0.122792
C46   C     C_R   0.561283 0.186794 0.906770 -0.122799
C47   C     C_R   0.061271 0.313223 0.406764 -0.122816
C48   C     C_R   0.938735 0.686760 0.593245 -0.122805
H13   H     H_    0.466154 0.695958 0.089160 0.153877
H14   H     H_    0.533855 0.304058 0.910855 0.153889
H15   H     H_    0.033859 0.195969 0.410876 0.153839
H16   H     H_    0.966152 0.804002 0.589141 0.153821
C49   C     C_R   0.400247 0.791714 0.133620 0.195039
C50   C     C_R   0.599758 0.208295 0.866389 0.195042
C51   C     C_R   0.099751 0.291718 0.366389 0.195076
C52   C     C_R   0.900255 0.708265 0.633621 0.195073
C53   C     C_R   0.363771 0.943513 0.139742 -0.167749
C54   C     C_R   0.636230 0.056487 0.860259 -0.167760
C55   C     C_R   0.136210 0.443501 0.360236 -0.167869
C56   C     C_R   0.863789 0.556498 0.639764 -0.167852
C57   C     C_R   0.368045 0.113211 0.104561 -0.186979
C58   C     C_R   0.631952 0.886778 0.895435 -0.186970
C59   C     C_R   0.131904 0.613200 0.395371 -0.186782
C60   C     C_R   0.868089 0.386815 0.604620 -0.186805
H17   H     H_    0.340792 0.230941 0.107827 0.141851
H18   H     H_    0.659203 0.769042 0.892164 0.141851
H19   H     H_    0.159131 0.730934 0.392072 0.142024
H20   H     H_    0.840857 0.269091 0.607914 0.142031
C61   C     C_R   0.406681 0.135073 0.064372 0.246777
C62   C     C_R   0.593316 0.864914 0.935624 0.246783
C63   C     C_R   0.093262 0.635078 0.435547 0.246814
C64   C     C_R   0.906731 0.364937 0.564444 0.246809
C65   C     C_R   0.442479 0.982562 0.058464 0.013118
C66   C     C_R   0.557523 0.017434 0.941539 0.013110
C67   C     C_R   0.057491 0.482572 0.441500 0.013008
C68   C     C_R   0.942508 0.517427 0.558500 0.013020
C69   C     C_1   0.483073 0.994959 0.017198 -0.044998
C70   C     C_1   0.516929 0.005036 0.982805 -0.044999
C71   C     C_1   0.016918 0.494961 0.482792 -0.045082
C72   C     C_1   0.983081 0.505038 0.517208 -0.045082
C73   C     C_3   0.258506 0.916281 0.463447 -0.787301
H21   H     H_    0.237535 0.924150 0.416304 0.189143
H22   H     H_    0.247814 0.776063 0.483698 0.206957
H23   H     H_    0.243565 0.038439 0.489644 0.212349
C74   C     C_3   0.741496 0.083786 0.536554 -0.787303
H24   H     H_    0.762468 0.075791 0.583695 0.189147
H25   H     H_    0.756442 0.961718 0.510323 0.212367
H26   H     H_    0.752182 0.224074 0.516343 0.206941
C75   C     C_3   0.241677 0.422572 0.036590 -0.787112
H27   H     H_    0.262576 0.427119 0.083815 0.189176
H28   H     H_    0.252600 0.284272 0.015332 0.206703
H29   H     H_    0.256488 0.547146 0.011347 0.212513
C76   C     C_3   0.758323 0.577442 0.963410 -0.787112
H30   H     H_    0.737423 0.572865 0.916186 0.189172
H31   H     H_    0.743513 0.452879 0.988660 0.212497
H32   H     H_    0.747398 0.715755 0.984660 0.206714
C77   C     C_3   0.674372 0.084164 0.416580 -0.801088
H33   H     H_    0.666051 0.951362 0.388388 0.206139
H34   H     H_    0.657586 0.212425 0.390680 0.206321
H35   H     H_    0.717145 0.104268 0.421593 0.219762
C78   C     C_3   0.325630 0.915959 0.583421 -0.801084
H36   H     H_    0.334010 0.048708 0.611623 0.206136
H37   H     H_    0.282848 0.896125 0.578415 0.219759
H38   H     H_    0.342364 0.787595 0.609309 0.206322
C79   C     C_3   0.825263 0.571298 0.083492 -0.801160
H39   H     H_    0.833758 0.436681 0.110756 0.206191
H40   H     H_    0.841795 0.698098 0.110329 0.206242
H41   H     H_    0.782456 0.590415 0.078513 0.219777
C80   C     C_3   0.174739 0.428808 0.916508 -0.801160
H42   H     H_    0.166283 0.563518 0.889279 0.206205
H43   H     H_    0.217540 0.409523 0.921488 0.219780
H44   H     H_    0.158175 0.302125 0.889636 0.206226
N1    N     N_3   0.400433 0.615742 0.168568 -0.646205
H45   H     H_    0.402652 0.649964 0.215575 0.225408
H46   H     H_    0.365925 0.540258 0.155201 0.248884
N2    N     N_3   0.599575 0.384281 0.831447 -0.646192
H47   H     H_    0.597353 0.350078 0.784439 0.225413
H48   H     H_    0.634087 0.459745 0.844815 0.248876
N3    N     N_3   0.099587 0.115757 0.331478 -0.646126
H49   H     H_    0.097355 0.149997 0.284464 0.225342
H50   H     H_    0.134112 0.040287 0.344851 0.248864
N4    N     N_3   0.900425 0.884208 0.668541 -0.646146
H51   H     H_    0.902652 0.849941 0.715553 0.225337
H52   H     H_    0.865905 0.959705 0.655170 0.248874
N5    N     N_3   0.408291 0.314522 0.030944 -0.663187
H53   H     H_    0.375000 0.320134 0.998824 0.221613
H54   H     H_    0.440502 0.321891 0.005962 0.232127
N6    N     N_3   0.591701 0.685451 0.969044 -0.663184
H55   H     H_    0.624993 0.679815 0.001163 0.221613
H56   H     H_    0.559491 0.678083 0.994026 0.232125
N7    N     N_3   0.091633 0.814513 0.468936 -0.663274
H57   H     H_    0.124814 0.819721 0.501229 0.221715
H58   H     H_    0.059296 0.822244 0.493700 0.232112
N8    N     N_3   0.908352 0.185520 0.531045 -0.663279
H59   H     H_    0.875171 0.180345 0.498751 0.221716
H60   H     H_    0.940688 0.177784 0.506280 0.232115

loop_
_geom_bond_atom_site_label_1
_geom_bond_atom_site_label_2
_ccdc_geom_bond_type
O17   V3    S    
C59   H19   S    
C25   C29   A    
O1    C5    A    
C1    C55   S    
C64   N8    S    
N3    H50   S    
C9    C21   A    
O3    C7    A    
C45   C49   A    
C10   C18   A    
O1    V3    S    
O15   V3    S    
N5    H53   S    
C25   C33   A    
C33   C38   A    
N7    H58   S    
C5    C12   S    
C39   H11   S    
O7    C3    A    
C6    C11   S    
C78   H37   S    
C35   C40   A    
C48   C68   A    
C16   C80   S    
C36   C39   A    
C46   C66   A    
O9    V1    S    
N6    H55   S    
C23   H8    S    
C14   C18   A    
N1    H46   S    
C80   H42   S    
O4    C8    A    
C19   C76   S    
C55   C59   A    
C44   H4    S    
O19   V1    S    
N8    H59   S    
C54   C58   A    
C71   C72   T    
C52   C56   A    
O13   V1    S    
O2    V4    S    
C17   C74   S    
O3    V1    S    
C52   N4    S    
C28   C36   A    
C49   N1    S    
N5    H54   S    
N1    H45   S    
C1    O15   A    
C60   H20   S    
C15   C31   A    
C15   C79   S    
C37   H9    S    
C16   C32   A    
O2    C6    A    
C75   H29   S    
C10   C22   A    
C2    C56   S    
C11   C19   A    
C66   C70   S    
C16   C20   A    
C43   H3    S    
C65   C69   S    
C76   H32   S    
C13   C29   A    
C3    C53   S    
C34   C37   A    
O11   C7    A    
C11   C23   A    
C35   C36   A    
O12   C8    A    
C13   C17   A    
N4    H52   S    
C40   H12   S    
C24   H7    S    
C4    C54   S    
C59   C63   A    
O10   V2    S    
C80   H43   S    
C50   C54   A    
O5    V1    S    
O17   V1    S    
C78   H38   S    
C63   N7    S    
C20   C75   S    
C60   C64   A    
O7    V3    S    
C38   C42   A    
O19   V3    S    
C26   C34   A    
O20   V4    S    
C50   N2    S    
C73   H23   S    
C2    O16   A    
N7    H57   S    
O18   V4    S    
C15   C19   A    
C32   C44   A    
O4    V2    S    
C64   C68   A    
C21   H6    S    
C79   H40   S    
O8    V4    S    
N4    H51   S    
C39   C43   A    
O5    C1    A    
C23   C27   A    
C77   H35   S    
C53   C57   A    
C14   C30   A    
C21   C25   A    
O8    C4    A    
C7    C10   S    
O9    C5    A    
C26   C30   A    
N2    H47   S    
C74   H24   S    
O14   V2    S    
O6    V2    S    
N2    H48   S    
O18   V2    S    
C62   N6    S    
C79   H39   S    
C75   H27   S    
C47   C67   A    
C12   C20   A    
C27   C35   A    
C51   N3    S    
C40   C44   A    
C68   C72   S    
C80   H44   S    
C29   C41   A    
C75   H28   S    
C69   C70   T    
O16   V4    S    
C61   C65   A    
C3    O13   A    
C63   C67   A    
C38   H10   S    
C48   H16   S    
C45   C65   A    
C58   C62   A    
C47   H15   S    
O6    C2    A    
C31   C43   A    
C18   C73   S    
O11   V3    S    
C79   H41   S    
O12   V4    S    
C47   C51   A    
C78   H36   S    
C22   C26   A    
C8    C9    S    
C46   C50   A    
C9    C17   A    
O10   C6    A    
C73   H22   S    
C76   H30   S    
C57   C61   A    
O20   V2    S    
C58   H18   S    
C73   H21   S    
C46   H14   S    
C33   C34   A    
C77   H33   S    
N8    H60   S    
C41   H1    S    
C56   C60   A    
N6    H56   S    
C14   C78   S    
C12   C24   A    
C27   C31   A    
C49   C53   A    
C13   C77   S    
C57   H17   S    
C74   H25   S    
C51   C55   A    
C37   C41   A    
C24   C28   A    
C42   H2    S    
C62   C66   A    
C4    O14   A    
N3    H49   S    
C74   H26   S    
C77   H34   S    
C61   N5    S    
C67   C71   S    
C48   C52   A    
C30   C42   A    
C22   H5    S    
C45   H13   S    
C28   C32   A    
C76   H31   S    
