data_mof_unit_pretest_588.cif
_audit_creation_date              2012-12-10T17:57:52-0500
_audit_creation_method            fapswitch 2.2
_symmetry_space_group_name_H-M    P1
_symmetry_Int_Tables_number       1
_space_group_crystal_system       triclinic
_cell_length_a                    10.775481
_cell_length_b                    9.506377
_cell_length_c                    15.074257
_cell_angle_alpha                 89.285379
_cell_angle_beta                  90.470015
_cell_angle_gamma                 90.038304
_cell_volume                      1543.97104175

loop_
_atom_site_label
_atom_site_type_symbol
_atom_type_description
_atom_site_fract_x
_atom_site_fract_y
_atom_site_fract_z
_atom_type_partial_charge
C1    C     C_R   0.262310 0.499949 0.500074 0.911251
C2    C     C_R   0.737635 0.500019 0.500352 0.921378
C3    C     C_R   0.351908 0.297736 0.052205 0.247270
C4    C     C_R   0.563899 0.748129 0.949605 0.243109
C5    C     C_R   0.063585 0.439284 0.429111 0.203447
C6    C     C_R   0.936106 0.560129 0.571901 0.204859
C7    C     C_R   0.934188 0.439060 0.429229 0.233722
C8    C     C_R   0.065627 0.559854 0.571909 0.224126
C9    C     C_R   0.871364 0.499954 0.500455 -0.260689
C10   C     C_R   0.128467 0.499798 0.500343 -0.257808
C11   C     C_R   0.424389 0.075501 0.443402 0.037492
C12   C     C_R   0.575675 0.924496 0.556549 0.042378
C13   C     C_R   0.575813 0.073404 0.556445 0.062197
C14   C     C_R   0.424445 0.926581 0.443367 0.044675
C15   C     C_R   0.502676 0.501059 0.328693 0.875382
C16   C     C_R   0.496947 0.498677 0.671776 0.867833
C17   C     C_R   0.524018 0.619338 0.813262 -0.137212
C18   C     C_R   0.432405 0.400756 0.188294 -0.143614
C19   C     C_R   0.487079 0.497673 0.769207 -0.137047
C20   C     C_R   0.498991 0.504944 0.231916 -0.136200
C21   C     C_R   0.437899 0.382455 0.818045 0.289817
C22   C     C_R   0.555546 0.614993 0.183980 0.278044
C23   C     C_R   0.415647 0.397605 0.909806 -0.043448
C24   C     C_R   0.531824 0.629131 0.091964 -0.049909
C25   C     C_R   0.468741 0.514217 0.954224 -0.030030
C26   C     C_R   0.472686 0.516029 0.047478 -0.030132
C27   C     C_R   0.520448 0.627401 0.905484 0.015298
C28   C     C_R   0.420358 0.402750 0.096165 0.021291
C29   C     C_R   0.343783 0.299896 0.959325 0.276366
C30   C     C_R   0.564412 0.751411 0.042669 0.277339
Cu1   Cu    Cu3+1 0.500000 0.640660 0.500000 1.042195
Cu2   Cu    Cu3+1 0.500000 0.359340 0.500000 1.045016
H1    H     H_    0.561302 0.705648 0.774542 0.212653
H2    H     H_    0.391068 0.317568 0.227584 0.214166
H3    H     H_    0.363869 0.132520 0.398074 0.163705
H4    H     H_    0.636182 0.867488 0.601888 0.164488
H5    H     H_    0.636492 0.128779 0.601649 0.158494
H6    H     H_    0.363980 0.871192 0.398023 0.149258
N1    N     N_R   0.500000 0.852070 0.500000 -0.182118
N2    N     N_R   0.500000 0.147930 0.500000 -0.181919
O1    O     O_R   0.319640 0.618740 0.499990 -0.568341
O2    O     O_R   0.680360 0.381260 0.500010 -0.570436
O3    O     O_R   0.680360 0.618740 0.500010 -0.556295
O4    O     O_R   0.319640 0.381260 0.499990 -0.561105
O5    O     O_R   0.499970 0.618800 0.370260 -0.566670
O6    O     O_R   0.500030 0.381200 0.629740 -0.555070
O7    O     O_R   0.500030 0.618800 0.629740 -0.578566
O8    O     O_R   0.499970 0.381200 0.370260 -0.574884
Br1   Br    Br    0.430248 0.196859 0.766057 -0.355784
Br2   Br    Br    0.691781 0.713480 0.240797 -0.330887
Br3   Br    Br    0.209572 0.194682 0.905401 -0.235737
Br4   Br    Br    0.581149 0.933256 0.098078 -0.287291
Br5   Br    Br    0.266333 0.150853 0.117764 -0.303456
Br6   Br    Br    0.623260 0.910986 0.883993 -0.319807
Br7   Br    Br    0.151380 0.362392 0.329718 -0.410333
Br8   Br    Br    0.847676 0.636413 0.671463 -0.400484
Br9   Br    Br    0.843363 0.360429 0.330372 -0.314902
Br10  Br    Br    0.156662 0.635305 0.671621 -0.347073

loop_
_geom_bond_atom_site_label_1
_geom_bond_atom_site_label_2
_ccdc_geom_bond_type
C6    C8    A    
C5    C7    A    
C14   H6    S    
Cu2   O8    S    
Cu1   O3    S    
C1    O4    A    
C26   C28   A    
Cu1   Cu2   S    
C2    O3    A    
C22   Br2   S    
C4    Br6   S    
C4    C27   A    
C12   N1    A    
C21   Br1   S    
Cu2   O4    S    
C5    C10   A    
C25   C26   A    
Cu1   O7    S    
C6    Br8   S    
C7    Br9   S    
C3    Br5   S    
C15   C20   S    
C17   H1    S    
C15   O8    A    
C2    O2    A    
C16   C19   S    
C18   H2    S    
C23   C29   A    
C16   O7    A    
C1    O1    A    
C3    C28   A    
C19   C21   A    
C20   C22   A    
C18   C20   A    
C23   C25   A    
C21   C23   A    
C29   Br3   S    
C11   N2    A    
C11   C14   A    
C22   C24   A    
C24   C30   A    
C12   H4    S    
Cu2   O6    S    
C15   O5    A    
C17   C27   A    
C7    C9    A    
C6    C9    A    
Cu2   N2    S    
C18   C28   A    
C12   C13   A    
C8    C10   A    
Cu1   O5    S    
C16   O6    A    
C3    C29   A    
Cu2   O2    S    
C17   C19   A    
C13   N2    A    
C30   Br4   S    
Cu1   O1    S    
C8    Br10  S    
C14   N1    A    
C2    C9    S    
C13   H5    S    
C11   H3    S    
C5    Br7   S    
C4    C30   A    
C1    C10   S    
C24   C26   A    
Cu1   N1    S    
C25   C27   A    
