data_mof_unit_pretest_592.cif
_audit_creation_date              2012-10-26T20:31:59-0400
_audit_creation_method            fapswitch 2.2
_symmetry_space_group_name_H-M    P1
_symmetry_Int_Tables_number       1
_space_group_crystal_system       triclinic
_cell_length_a                    10.63536
_cell_length_b                    10.820841
_cell_length_c                    9.548543
_cell_angle_alpha                 89.948163
_cell_angle_beta                  89.57107
_cell_angle_gamma                 90.037839
_cell_volume                      1098.848639

loop_
_atom_site_label
_atom_site_type_symbol
_atom_type_description
_atom_site_fract_x
_atom_site_fract_y
_atom_site_fract_z
_atom_type_partial_charge
C1    C     C_R   0.501887 0.262391 0.499944 0.555355
C2    C     C_R   0.524235 0.936571 0.623898 0.000808
C3    C     C_3   0.454149 0.931807 0.760996 0.157785
C4    C     C_R   0.259472 0.500293 0.500580 0.573248
C5    C     C_3   0.452755 0.073229 0.759684 -0.237473
C6    C     C_R   0.607608 0.524076 0.072709 0.161511
C7    C     C_R   0.396874 0.463853 0.075123 -0.008241
C8    C     C_R   0.396814 0.464004 0.926488 -0.008890
C9    C     C_R   0.608046 0.523240 0.925454 0.179039
C10   C     C_3   0.686405 0.637394 0.918548 -0.276559
C11   C     C_3   0.683919 0.639137 0.077636 -0.283062
C12   C     C_3   0.961153 0.495776 0.365122 -0.136284
C13   C     C_R   0.502232 0.737593 0.499874 0.556667
C14   C     C_R   0.740619 0.501425 0.499425 0.577122
C15   C     C_3   0.039615 0.508361 0.634632 -0.144897
C16   C     C_3   0.957730 0.406545 0.570156 0.234930
C17   C     C_3   0.877340 0.503489 0.497920 0.038132
C18   C     C_3   0.958335 0.607953 0.560795 -0.167058
C19   C     C_3   0.042884 0.598280 0.429421 0.268457
C20   C     C_3   0.008676 0.775988 0.297156 0.002049
C21   C     C_3   0.016730 0.768800 0.137385 -0.255004
C22   C     C_3   0.928294 0.862062 0.069247 -0.491091
C23   C     C_3   0.042287 0.396423 0.439578 -0.153081
C24   C     C_3   0.248101 0.908649 0.659304 0.032589
C25   C     C_3   0.128820 0.952624 0.734284 -0.276659
C26   C     C_3   0.026257 0.988720 0.631356 -0.488080
C27   C     C_3   0.122915 0.500646 0.502025 0.023942
C28   C     C_R   0.523909 0.063715 0.624096 -0.020623
C29   C     C_R   0.514035 0.129448 0.499054 0.010520
C30   C     C_R   0.522436 0.064518 0.371683 -0.163097
C31   C     C_R   0.522604 0.935641 0.371657 -0.172740
C32   C     C_R   0.514432 0.870540 0.498991 0.000689
Cu1   Cu    Cu3+1 0.499990 0.499980 0.640670 0.976698
Cu2   Cu    Cu3+1 0.500010 0.500020 0.359330 0.951003
H1    H     H_    0.514862 0.895729 0.845796 0.117235
H2    H     H_    0.073589 0.510806 0.744263 0.114456
H3    H     H_    0.920813 0.694017 0.608352 0.091622
H4    H     H_    0.927247 0.491767 0.255647 0.107786
H5    H     H_    0.078967 0.309307 0.393548 0.103009
H6    H     H_    0.522582 0.112514 0.272094 0.138663
H7    H     H_    0.522719 0.887838 0.272080 0.134531
H8    H     H_    0.980961 0.266020 0.689150 0.308934
H9    H     H_    0.030899 0.872153 0.329015 0.145242
H10   H     H_    0.910161 0.756885 0.332361 0.112032
H11   H     H_    0.114670 0.788209 0.102211 0.189996
H12   H     H_    0.359322 0.117612 0.748495 0.127135
H13   H     H_    0.991991 0.674027 0.102704 0.149708
H14   H     H_    0.832603 0.856170 0.115962 0.146250
H15   H     H_    0.921065 0.842725 0.955521 0.140128
H16   H     H_    0.964769 0.957364 0.083772 0.149989
H17   H     H_    0.224406 0.827496 0.593272 0.184940
H18   H     H_    0.282380 0.981955 0.587046 0.122510
H19   H     H_    0.093265 0.877088 0.802646 0.175123
H20   H     H_    0.151135 0.033459 0.801330 0.154922
H21   H     H_    0.060649 0.061650 0.558578 0.151620
H22   H     H_    0.943412 0.024557 0.689922 0.168028
H23   H     H_    0.511532 0.114123 0.843551 0.113634
H24   H     H_    0.996232 0.906807 0.570614 0.146097
H25   H     H_    0.312712 0.435732 0.130636 0.122884
H26   H     H_    0.312649 0.436157 0.872218 0.110322
H27   H     H_    0.781574 0.619097 0.874263 0.129893
H28   H     H_    0.636339 0.716386 0.870291 0.140622
H29   H     H_    0.777075 0.622390 0.125209 0.121280
H30   H     H_    0.630894 0.718618 0.122066 0.140172
N1    N     N_R   0.500800 0.500930 0.147930 -0.232768
N2    N     N_R   0.500800 0.500890 0.852020 -0.228041
O1    O     O_R   0.500000 0.319640 0.618810 -0.495679
O2    O     O_3   0.100065 0.697483 0.356848 -0.566665
O3    O     O_3   0.335886 0.869430 0.761304 -0.551179
O4    O     O_R   0.500010 0.319680 0.381230 -0.513963
O5    O     O_R   0.316850 0.499950 0.618770 -0.521344
O6    O     O_R   0.316860 0.499990 0.381190 -0.488259
O7    O     O_R   0.499990 0.680320 0.618770 -0.478737
O8    O     O_R   0.500000 0.680360 0.381190 -0.507002
O9    O     O_R   0.683140 0.500010 0.618810 -0.479406
O10   O     O_R   0.683150 0.500050 0.381230 -0.519804
O11   O     O_3   0.907924 0.305886 0.643799 -0.693622

loop_
_geom_bond_atom_site_label_1
_geom_bond_atom_site_label_2
_ccdc_geom_bond_type
C24   H18   S    
C15   C18   S    
C22   H14   S    
C8    N2    A    
C13   C32   S    
C26   H21   S    
C20   H9    S    
C6    C9    A    
C7    C8    A    
C12   C23   S    
C28   C29   A    
C3    O3    S    
C18   H3    S    
C25   H19   S    
C18   C19   S    
C11   H29   S    
C30   C31   A    
C15   C16   S    
C2    C32   A    
C16   O11   S    
C9    N2    A    
Cu1   O9    S    
C6    N1    A    
C16   C17   S    
C12   C17   S    
Cu1   N2    S    
C23   C27   S    
C19   C27   S    
C9    C10   S    
Cu2   O4    S    
C22   H16   S    
C24   H17   S    
C21   C22   S    
C14   C17   S    
C10   H28   S    
Cu2   N1    S    
C7    H25   S    
C20   H10   S    
C24   O3    S    
Cu1   Cu2   S    
C21   H11   S    
C25   H20   S    
C11   H30   S    
C6    C11   S    
C25   C26   S    
C14   O10   A    
C29   C30   A    
C7    N1    A    
C5    C28   S    
C15   C27   S    
C31   C32   A    
C3    H1    S    
C1    C29   S    
C17   C18   S    
C30   H6    S    
C19   O2    S    
C24   C25   S    
C26   H24   S    
Cu2   O8    S    
C22   H15   S    
Cu1   O7    S    
C13   O7    A    
C16   C23   S    
C10   H27   S    
Cu2   O6    S    
C15   H2    S    
C4    O6    A    
C4    C27   S    
Cu1   O1    S    
C31   H7    S    
C20   O2    S    
C3    C5    S    
C26   H22   S    
C5    H12   S    
C1    O4    A    
C5    H23   S    
C14   O9    A    
C2    C3    S    
C8    H26   S    
C23   H5    S    
C12   C19   S    
C1    O1    A    
C12   H4    S    
C10   C11   S    
Cu1   O5    S    
C20   C21   S    
H8    O11   S    
C2    C28   A    
C4    O5    A    
Cu2   O10   S    
C13   O8    A    
C21   H13   S    
