data_mof_unit_pretest_123.cif
_audit_creation_date              2012-12-10T18:57:51-0500
_audit_creation_method            fapswitch 2.2
_symmetry_space_group_name_H-M    P1
_symmetry_Int_Tables_number       1
_space_group_crystal_system       triclinic
_cell_length_a                    10.794136
_cell_length_b                    9.962545
_cell_length_c                    8.915932
_cell_angle_alpha                 89.794184
_cell_angle_beta                  90.120933
_cell_angle_gamma                 89.751011
_cell_volume                      958.775757998

loop_
_atom_site_label
_atom_site_type_symbol
_atom_type_description
_atom_site_fract_x
_atom_site_fract_y
_atom_site_fract_z
_atom_type_partial_charge
C1    C     C_R   0.260727 0.500338 0.496760 0.916044
C2    C     C_R   0.063908 0.610706 0.552234 0.346379
C3    C     C_R   0.873489 0.500809 0.492835 -0.451582
C4    C     C_R   0.128793 0.501814 0.491056 -0.457873
C5    C     C_R   0.551501 0.072583 0.616562 0.368631
C6    C     C_R   0.445823 0.929875 0.385604 0.291102
C7    C     C_R   0.450966 0.073362 0.382414 0.421220
C8    C     C_R   0.555796 0.928671 0.613981 0.276418
C9    C     C_3   0.154317 0.349673 0.199673 0.188785
C10   C     C_3   0.153004 0.238402 0.081983 -0.321788
C11   C     C_3   0.228846 0.277009 0.944131 -0.940789
C12   C     C_R   0.740128 0.499915 0.498228 0.946804
C13   C     C_3   0.858395 0.805438 0.409216 0.133336
C14   C     C_3   0.976077 0.865630 0.341558 -0.360921
C15   C     C_3   0.945606 0.949487 0.202681 -0.924434
C16   C     C_3   0.872234 0.193121 0.570068 0.157450
C17   C     C_3   0.996479 0.156207 0.644059 -0.399378
C18   C     C_3   0.976452 0.058098 0.772930 -0.940254
C19   C     C_3   0.146181 0.657694 0.780525 0.135305
C20   C     C_3   0.152597 0.773098 0.891293 -0.320507
C21   C     C_3   0.194513 0.725292 0.045303 -0.960450
C22   C     C_R   0.500926 0.500182 0.219009 0.887938
C23   C     C_R   0.500758 0.499889 0.780991 0.899371
C24   C     C_1   0.501936 0.500382 0.065460 -0.178082
C25   C     C_1   0.501884 0.500033 0.934542 -0.169919
C26   C     C_R   0.065068 0.394575 0.425445 0.337448
C27   C     C_R   0.938327 0.619851 0.527119 0.368108
C28   C     C_R   0.939733 0.383847 0.452384 0.370004
H1    H     H_    0.248176 0.394473 0.206067 0.159269
H2    H     H_    0.023599 0.928526 0.425610 0.263773
H3    H     H_    0.040072 0.783510 0.308928 0.211754
H4    H     H_    0.894988 0.888219 0.118848 0.264290
H5    H     H_    0.032533 0.984930 0.150664 0.265192
H6    H     H_    0.888238 0.037940 0.233483 0.299055
H7    H     H_    0.819372 0.099830 0.548936 0.172718
H8    H     H_    0.817723 0.252901 0.651890 0.176586
H9    H     H_    0.060896 0.111840 0.561167 0.269307
H10   H     H_    0.040107 0.248102 0.690106 0.208267
H11   H     H_    0.910041 0.100258 0.855515 0.268299
H12   H     H_    0.088007 0.428708 0.160260 0.067598
H13   H     H_    0.065823 0.039739 0.830514 0.259743
H14   H     H_    0.940115 0.961515 0.729832 0.314854
H15   H     H_    0.236692 0.604207 0.780194 0.143308
H16   H     H_    0.073133 0.587065 0.821133 0.098906
H17   H     H_    0.217920 0.850683 0.849616 0.245320
H18   H     H_    0.058717 0.817435 0.902483 0.228256
H19   H     H_    0.129182 0.649726 0.090248 0.235872
H20   H     H_    0.195125 0.812494 0.121653 0.301983
H21   H     H_    0.289135 0.681667 0.039882 0.288195
H22   H     H_    0.634447 0.083333 0.811491 0.369037
H23   H     H_    0.191264 0.144314 0.130143 0.259198
H24   H     H_    0.348665 0.783488 0.315262 0.387247
H25   H     H_    0.395915 0.085613 0.175353 0.361162
H26   H     H_    0.652792 0.780294 0.685773 0.404113
H27   H     H_    0.055742 0.218894 0.047710 0.210389
H28   H     H_    0.191376 0.370152 0.892219 0.234372
H29   H     H_    0.226204 0.195246 0.860225 0.272809
H30   H     H_    0.327044 0.292419 0.976187 0.292248
H31   H     H_    0.789785 0.887017 0.427550 0.152146
H32   H     H_    0.816159 0.736075 0.325847 0.142069
N1    N     N_R   0.500000 0.857200 0.500000 -0.207158
N2    N     N_R   0.500000 0.142800 0.500000 -0.155865
O1    O     O_R   0.316770 0.614620 0.499990 -0.612377
O2    O     O_3   0.880837 0.742574 0.550094 -0.606840
O3    O     O_3   0.884445 0.260535 0.430105 -0.604106
O4    O     O_3   0.121023 0.709707 0.635462 -0.586950
O5    O     O_3   0.602984 0.144787 0.732644 -0.740772
O6    O     O_3   0.383437 0.866345 0.272461 -0.777162
O7    O     O_3   0.404040 0.145520 0.263159 -0.710987
O8    O     O_3   0.618556 0.863797 0.727441 -0.752521
O9    O     O_R   0.683230 0.385380 0.500010 -0.579782
O10   O     O_R   0.683230 0.614620 0.500010 -0.631340
O11   O     O_R   0.316770 0.385380 0.499990 -0.564917
O12   O     O_R   0.500010 0.614640 0.285340 -0.618643
O13   O     O_R   0.499990 0.385360 0.714660 -0.558937
O14   O     O_R   0.499990 0.614640 0.714660 -0.607175
O15   O     O_R   0.500010 0.385360 0.285340 -0.554532
O16   O     O_3   0.123360 0.295815 0.342098 -0.577956
Zn1   Zn    Zn3+2 0.500000 0.653120 0.500000 0.961356
Zn2   Zn    Zn3+2 0.500000 0.346880 0.500000 1.040962

loop_
_geom_bond_atom_site_label_1
_geom_bond_atom_site_label_2
_ccdc_geom_bond_type
C19   C20   S    
O14   Zn1   S    
C23   O14   A    
C5    O5    S    
H25   O7    S    
C21   H21   S    
C15   H4    S    
C13   H32   S    
O1    Zn1   S    
C26   O16   S    
C6    N1    A    
N2    Zn2   S    
C3    C28   A    
O10   Zn1   S    
C18   H14   S    
C16   H7    S    
C19   O4    S    
C3    C12   S    
C16   C17   S    
C2    C27   A    
C11   H30   S    
O13   Zn2   S    
C14   H3    S    
C15   H6    S    
C20   H17   S    
H24   O6    S    
C9    H1    S    
C8    N1    A    
C17   H10   S    
C21   H20   S    
C6    O6    S    
C12   O10   A    
C13   C14   S    
C14   H2    S    
C10   H23   S    
C1    O1    A    
O9    Zn2   S    
C19   H15   S    
C24   C25   T    
C27   O2    S    
C18   H13   S    
C9    H12   S    
H22   O5    S    
C2    C4    A    
C18   H11   S    
C7    N2    A    
H26   O8    S    
C17   C18   S    
C17   H9    S    
C10   H27   S    
C12   O9    A    
O12   Zn1   S    
C22   C24   S    
C22   O12   A    
C19   H16   S    
C9    C10   S    
O15   Zn2   S    
C8    O8    S    
C22   O15   A    
C23   O13   A    
C2    O4    S    
C7    O7    S    
C5    C8    A    
C4    C26   A    
C6    C7    A    
C13   H31   S    
C26   C28   A    
C1    C4    S    
C1    O11   A    
C3    C27   A    
C28   O3    S    
C16   H8    S    
C13   O2    S    
N1    Zn1   S    
O11   Zn2   S    
C5    N2    A    
C9    O16   S    
C23   C25   S    
C10   C11   S    
C20   C21   S    
C14   C15   S    
C16   O3    S    
C11   H29   S    
C15   H5    S    
C20   H18   S    
C11   H28   S    
C21   H19   S    
