data_mof_unit_pretest_510.cif
_audit_creation_date              2013-03-05T16:48:30-0500
_audit_creation_method            fapswitch 2.2
_symmetry_space_group_name_H-M    P1
_symmetry_Int_Tables_number       1
_space_group_crystal_system       triclinic
_cell_length_a                    10.925207
_cell_length_b                    14.969222
_cell_length_c                    15.308652
_cell_angle_alpha                 63.080127
_cell_angle_beta                  106.478447
_cell_angle_gamma                 102.168629
_cell_volume                      2130.67117733

loop_
_atom_site_label
_atom_site_type_symbol
_atom_site_description
_atom_site_fract_x
_atom_site_fract_y
_atom_site_fract_z
_atom_type_partial_charge
O1    O     O_R   0.455540 0.022090 0.338120 -0.537758
O2    O     O_R   0.544460 0.977910 0.661880 -0.498500
O3    O     O_R   0.512510 0.160150 0.379180 -0.546380
O4    O     O_R   0.487490 0.839850 0.620820 -0.586949
C1    C     C_R   0.478000 0.119651 0.312567 0.845097
C2    C     C_R   0.515948 0.880101 0.686765 0.901169
O5    O     O_R   0.291160 0.930970 0.479480 -0.559234
O6    O     O_R   0.708840 0.069030 0.520520 -0.544025
O7    O     O_R   0.348130 0.069020 0.520540 -0.580530
O8    O     O_R   0.651870 0.930980 0.479460 -0.575123
C3    C     C_R   0.266240 0.994428 0.510348 0.877984
C4    C     C_R   0.737446 0.001261 0.497598 0.798974
Cu1   Cu    Cu3+1 0.466270 0.918260 0.475690 1.014988
Cu2   Cu    Cu3+1 0.533730 0.081740 0.524310 1.053386
C5    C     C_R   0.348651 0.092935 0.764070 -0.259405
C6    C     C_R   0.761024 0.826911 0.304450 -0.301536
H1    H     H_    0.410549 0.045588 0.831210 0.204189
H2    H     H_    0.748994 0.859067 0.224458 0.193184
C7    C     C_R   0.267943 0.049218 0.701188 0.453810
C8    C     C_R   0.804555 0.891494 0.352522 0.444502
C9    C     C_R   0.183356 0.107800 0.612493 0.025891
C10   C     C_R   0.831725 0.850157 0.457921 0.114947
C11   C     C_R   0.173716 0.206683 0.597554 -0.185364
C12   C     C_R   0.812081 0.746179 0.513418 -0.212200
H3    H     H_    0.108445 0.255115 0.535046 0.216097
H4    H     H_    0.841030 0.713743 0.594505 0.180291
C13   C     C_R   0.253912 0.249134 0.660591 -0.186142
C14   C     C_R   0.777559 0.682730 0.464725 -0.247274
H5    H     H_    0.245789 0.326155 0.644756 0.175801
H6    H     H_    0.779132 0.603081 0.509760 0.149052
C15   C     C_R   0.345244 0.194776 0.742366 0.518442
C16   C     C_R   0.750780 0.722208 0.359368 0.567355
C17   C     C_R   0.967035 0.078869 0.506987 -0.071878
C18   C     C_R   0.048894 0.903636 0.525838 -0.061414
C19   C     C_R   0.874822 0.998313 0.501669 -0.147576
C20   C     C_R   0.137505 0.984841 0.530343 -0.077130
C21   C     C_R   0.917116 0.912257 0.506618 -0.023219
C22   C     C_R   0.097781 0.061718 0.543187 0.024759
C23   C     C_R   0.457219 0.185630 0.202818 -0.176271
C24   C     C_R   0.521261 0.810673 0.794500 -0.122264
C25   C     C_R   0.337599 0.218438 0.031512 -0.083085
C26   C     C_R   0.602929 0.766754 0.972649 -0.119383
C27   C     C_R   0.385875 0.149559 0.129959 0.428295
C28   C     C_R   0.574812 0.842323 0.872866 0.453137
C29   C     C_R   0.502923 0.287238 0.170283 -0.232658
C30   C     C_R   0.471687 0.709721 0.819168 -0.246138
C31   C     C_R   0.471980 0.355413 0.068581 0.095983
C32   C     C_R   0.498395 0.635236 0.917788 0.087624
C33   C     C_R   0.378297 0.322359 0.001408 -0.025856
C34   C     C_R   0.583217 0.664579 0.990316 -0.008272
C35   C     C_R   0.521174 0.458515 0.035355 0.028894
C36   C     C_R   0.453287 0.531338 0.945274 0.014607
C37   C     C_R   0.343384 0.496769 0.887921 -0.019179
C38   C     C_R   0.634107 0.491866 0.090659 -0.050033
C39   C     C_R   0.320326 0.394399 0.909057 -0.156125
C40   C     C_R   0.653161 0.592533 0.075503 -0.222988
H7    H     H_    0.244315 0.370957 0.858632 0.198519
H8    H     H_    0.734022 0.616960 0.122228 0.201713
H9    H     H_    0.417471 0.689178 0.759890 0.222691
H10   H     H_    0.558404 0.313811 0.226043 0.212118
N1    N     N_R   0.584450 0.204570 0.560790 -0.280829
N2    N     N_R   0.415550 0.795430 0.439210 -0.293123
C41   C     C_R   0.734428 0.283807 0.659831 0.279176
C42   C     C_R   0.315369 0.730997 0.314575 0.318127
C43   C     C_R   0.698103 0.205343 0.629603 0.069676
C44   C     C_R   0.321955 0.799699 0.355259 0.007336
C45   C     C_R   0.520046 0.289934 0.506221 0.070213
C46   C     C_R   0.473067 0.707348 0.499670 0.101751
C47   C     C_R   0.559590 0.373978 0.531772 -0.133382
C48   C     C_R   0.466525 0.632344 0.464204 -0.121173
C49   C     C_R   0.654928 0.360829 0.619250 0.034258
C50   C     C_R   0.396633 0.653369 0.364964 0.007058
C51   C     C_R   0.509708 0.470210 0.475350 0.086862
C52   C     C_R   0.526407 0.538457 0.520601 0.123605
C53   C     C_R   0.611153 0.512416 0.616110 -0.189616
C54   C     C_R   0.463380 0.506802 0.371296 -0.187746
C55   C     C_R   0.674727 0.427272 0.662846 -0.180139
C56   C     C_R   0.406218 0.595472 0.317480 -0.102899
H11   H     H_    0.743351 0.415129 0.733179 0.188926
H12   H     H_    0.369682 0.618911 0.237538 0.193180
H13   H     H_    0.649101 0.560276 0.653474 0.170203
H14   H     H_    0.478898 0.471374 0.328631 0.184679
O9    O     O_3   0.419900 0.243060 0.801848 -0.564574
C57   C     C_3   0.539255 0.203926 0.853845 -0.261889
H15   H     H_    0.586400 0.192339 0.804819 0.156790
H16   H     H_    0.528149 0.133044 0.921188 0.157833
H17   H     H_    0.603478 0.259002 0.880132 0.203684
O10   O     O_3   0.713498 0.661826 0.307396 -0.563177
C58   C     C_3   0.789493 0.580416 0.351110 -0.241888
H18   H     H_    0.756560 0.518683 0.417409 0.147567
H19   H     H_    0.893550 0.604253 0.370710 0.173327
H20   H     H_    0.777035 0.548921 0.296133 0.221534
C59   C     C_2   0.233257 0.180349 0.966560 0.917859
O11   O     O_2   0.252460 0.117329 0.943215 -0.589477
O12   O     O_R   0.111106 0.212943 0.936547 -0.759795
H21   H     H_    0.047223 0.179169 0.895481 0.354446
C60   C     C_2   0.628605 0.790309 0.059520 0.866213
O13   O     O_2   0.737685 0.791178 0.109414 -0.613448
O14   O     O_R   0.526646 0.811250 0.083443 -0.751258
H22   H     H_    0.552037 0.823298 0.146326 0.315832
C61   C     C_2   0.235408 0.558360 0.821242 0.864449
O15   O     O_2   0.212188 0.624793 0.838063 -0.588616
O16   O     O_R   0.153399 0.534685 0.744382 -0.781973
H23   H     H_    0.077811 0.576730 0.709077 0.334126
C62   C     C_2   0.742303 0.428201 0.151311 0.833057
O17   O     O_2   0.820332 0.445057 0.218439 -0.638806
O18   O     O_R   0.757937 0.351376 0.128362 -0.762194
H24   H     H_    0.835586 0.314138 0.173503 0.340735
C63   C     C_2   0.517659 0.682467 0.606169 0.863304
O19   O     O_2   0.454672 0.617522 0.664354 -0.639049
O20   O     O_R   0.637946 0.723352 0.642157 -0.771559
H25   H     H_    0.661184 0.695272 0.718110 0.315168
C64   C     C_2   0.402662 0.290623 0.428195 0.910585
O21   O     O_2   0.298257 0.283009 0.445645 -0.594046
O22   O     O_R   0.410370 0.312538 0.331033 -0.785452
H26   H     H_    0.323062 0.314593 0.284239 0.339383
C65   C     C_2   0.212615 0.863237 0.314103 1.021759
O23   O     O_2   0.227990 0.949794 0.304180 -0.512769
O24   O     O_R   0.088538 0.822846 0.285102 -0.735964
H27   H     H_    0.022244 0.872694 0.257373 0.358762
C66   C     C_2   0.793256 0.130884 0.668474 0.953561
O25   O     O_2   0.764837 0.041153 0.712310 -0.600872
O26   O     O_R   0.920408 0.164680 0.660452 -0.771166
H28   H     H_    0.977610 0.107617 0.695972 0.317260
O27   O     O_3   0.846982 0.283206 0.730799 -0.597694
C67   C     C_3   0.940439 0.356031 0.682479 -0.190272
H29   H     H_    0.943402 0.355116 0.610707 0.173758
H30   H     H_    0.036295 0.339529 0.732642 0.217518
H31   H     H_    0.924751 0.432815 0.668012 0.154676
O28   O     O_3   0.231290 0.742823 0.223603 -0.577975
C68   C     C_3   0.129351 0.664844 0.239146 -0.157021
H32   H     H_    0.042408 0.694634 0.181132 0.213765
H33   H     H_    0.104511 0.636319 0.313710 0.159781
H34   H     H_    0.151355 0.601206 0.229589 0.149961
O29   O     O_3   0.273480 0.948733 0.727115 -0.584454
C69   C     C_3   0.192473 0.890801 0.794560 -0.242736
H35   H     H_    0.091317 0.909119 0.760129 0.146023
H36   H     H_    0.226414 0.900570 0.865757 0.183985
H37   H     H_    0.194463 0.810313 0.813537 0.250141
O30   O     O_3   0.850401 0.990294 0.299957 -0.561764
C70   C     C_3   0.747756 0.046545 0.233428 -0.305626
H38   H     H_    0.673473 0.040385 0.273138 0.150355
H39   H     H_    0.706293 0.024336 0.170181 0.142179
H40   H     H_    0.784893 0.127016 0.200887 0.218867
C71   C     C_2   0.938476 0.183496 0.434885 0.850049
O31   O     O_2   0.852859 0.222528 0.437509 -0.566220
O32   O     O_R   0.015479 0.239164 0.364923 -0.732680
H41   H     H_    0.994192 0.311364 0.323713 0.353398
C72   C     C_2   0.096746 0.809060 0.543951 0.843916
O33   O     O_2   0.060186 0.773020 0.482460 -0.600196
O34   O     O_R   0.194537 0.767658 0.627396 -0.740628
H42   H     H_    0.232493 0.713566 0.623778 0.352212
O35   O     O_3   0.583393 0.944791 0.849496 -0.567031
C73   C     C_3   0.696656 0.979492 0.902507 -0.223758
H43   H     H_    0.780045 0.937392 0.921013 0.181923
H44   H     H_    0.678828 0.979705 0.970188 0.154178
H45   H     H_    0.722582 0.059483 0.855480 0.184079
O36   O     O_3   0.343050 0.048826 0.157582 -0.534940
C74   C     C_3   0.424058 0.000629 0.138474 -0.225996
H46   H     H_    0.484267 0.052417 0.083948 0.119957
H47   H     H_    0.363567 0.947831 0.107350 0.235654
H48   H     H_    0.486307 0.954806 0.210120 0.147600

loop_
_geom_bond_atom_site_label_1
_geom_bond_atom_site_label_2
_geom_bond_distance
_ccdc_geom_bond_type
C41   C43   1.393790 A    
C29   H10   1.080082 S    
C59   O11   1.221835 D    
C30   H9    1.067637 S    
C13   H5    1.083414 S    
O12   H21   1.013932 S    
C51   C52   1.430868 A    
O20   H25   1.013947 S    
C57   H17   1.109205 S    
C27   O36   1.381637 S    
C71   O31   1.221025 D    
C8    C10   1.405734 A    
C72   O33   1.221647 D    
O26   H28   1.013692 S    
C31   C33   1.414208 A    
C5    C7    1.406434 A    
C62   O18   1.399212 S    
C67   H29   1.114654 S    
O9    C57   1.410003 S    
O1    C1    1.316102 A    
C28   O35   1.396792 S    
C3    C20   1.487200 S    
C7    C9    1.420660 A    
C54   C56   1.377651 A    
C32   C36   1.428537 A    
C72   O34   1.394774 S    
C56   H12   1.083169 S    
C7    O29   1.381259 S    
O22   H26   1.014261 S    
C16   O10   1.388542 S    
C15   O9    1.393888 S    
C29   C31   1.409925 A    
O4    Cu1   1.956728 S    
C47   C49   1.404796 A    
C50   C56   1.393699 A    
C63   O20   1.400210 S    
C60   O14   1.398492 S    
C25   C59   1.486462 S    
C9    C22   1.517790 S    
O32   H41   1.012666 S    
C37   C61   1.485536 S    
C44   C65   1.495970 S    
C48   C52   1.455028 A    
C67   H30   1.108383 S    
O34   H42   1.012833 S    
C74   H47   1.109304 S    
C47   C51   1.433671 A    
C11   C13   1.394136 A    
C58   H19   1.114537 S    
O29   C69   1.409048 S    
C73   H44   1.108699 S    
C6    C8    1.397934 A    
C23   C29   1.394914 A    
C68   H34   1.108762 S    
C55   H11   1.084760 S    
C59   O12   1.397777 S    
Cu1   Cu2   2.768313 S    
C25   C27   1.408498 A    
O2    C2    1.325070 A    
C26   C28   1.422327 A    
C69   H37   1.107712 S    
C25   C33   1.416165 A    
C71   O32   1.398825 S    
C18   C72   1.492921 S    
C60   O13   1.220586 D    
C38   C40   1.395178 A    
C37   C39   1.396757 A    
C30   C32   1.403796 A    
C52   C53   1.419517 A    
N2    C44   1.381671 A    
C13   C15   1.391469 A    
C35   C36   1.428121 A    
C61   O15   1.222647 D    
C14   C16   1.406523 A    
O30   C70   1.406234 S    
C73   H45   1.106535 S    
C69   H36   1.113107 S    
C70   H40   1.108635 S    
C54   H14   1.072829 S    
C53   H13   1.060029 S    
C31   C35   1.422703 A    
C67   H31   1.109301 S    
O3    C1    1.339729 A    
C33   C39   1.400801 A    
C10   C21   1.468867 S    
C34   C40   1.398672 A    
C45   C47   1.429317 A    
C70   H39   1.110101 S    
C42   C44   1.405020 A    
C42   O28   1.390752 S    
O5    C3    1.337255 A    
O7    Cu2   1.982932 S    
O7    C3    1.314892 A    
N1    C45   1.380153 A    
C74   H46   1.114006 S    
C24   C28   1.416200 A    
O6    C4    1.329700 A    
C73   H43   1.114171 S    
C74   H48   1.108266 S    
C39   H7    1.080467 S    
C57   H15   1.110632 S    
C58   H20   1.102885 S    
C53   C55   1.372705 A    
C66   O25   1.215369 D    
C41   O27   1.389390 S    
O3    Cu2   1.956728 S    
O8    C4    1.326876 A    
C26   C34   1.406581 A    
Cu1   N2    2.079502 S    
O4    C2    1.331390 A    
C41   C49   1.391803 A    
C43   C66   1.487983 S    
C9    C11   1.414185 A    
O27   C67   1.416734 S    
C51   C54   1.401096 A    
C2    C24   1.490859 S    
C26   C60   1.463858 S    
O1    Cu1   1.958971 S    
C24   C30   1.404931 A    
O18   H24   1.012870 S    
C20   C22   1.419561 A    
C58   H18   1.109624 S    
C49   C55   1.381995 A    
C36   C37   1.425398 A    
C64   O21   1.214869 D    
C61   O16   1.399448 S    
C5    H1    1.078967 S    
C1    C23   1.491774 S    
O6    Cu2   1.981410 S    
C38   C62   1.489513 S    
C19   C21   1.421750 A    
C12   C14   1.389438 A    
C57   H16   1.108855 S    
C69   H35   1.113905 S    
C68   H33   1.115565 S    
O8    Cu1   1.982932 S    
C23   C27   1.420503 A    
O24   H27   1.013987 S    
C5    C15   1.412130 A    
C18   C21   1.406983 A    
C6    C16   1.400755 A    
C62   O17   1.222114 D    
C17   C22   1.410713 A    
O14   H22   1.010346 S    
N2    C46   1.379970 A    
C35   C38   1.420840 A    
C8    O30   1.387254 S    
C65   O24   1.398696 S    
O28   C68   1.417851 S    
C45   C64   1.482206 S    
C14   H6    1.074606 S    
C70   H38   1.110968 S    
Cu2   N1    2.079502 S    
C12   H4    1.083028 S    
O36   C74   1.412987 S    
C32   C34   1.403836 A    
C17   C19   1.416307 A    
C18   C20   1.400538 A    
C40   H8    1.080715 S    
C10   C12   1.398456 A    
C46   C63   1.452652 S    
C42   C50   1.402978 A    
C68   H32   1.109614 S    
O2    Cu2   1.958972 S    
C66   O26   1.394643 S    
N1    C43   1.383674 A    
O5    Cu1   1.981409 S    
C11   H3    1.073519 S    
O10   C58   1.412508 S    
C6    H2    1.072453 S    
C63   O19   1.222157 D    
O16   H23   1.013944 S    
C46   C48   1.434083 A    
C48   C50   1.414364 A    
O35   C73   1.414439 S    
C65   O23   1.214340 D    
C4    C19   1.493592 S    
C17   C71   1.487918 S    
C64   O22   1.394517 S    
