data_mof_unit_pretest_493.cif
_audit_creation_date              2012-12-11T16:51:03-0500
_audit_creation_method            fapswitch 2.2
_symmetry_space_group_name_H-M    P1
_symmetry_Int_Tables_number       1
_space_group_crystal_system       triclinic
_cell_length_a                    6.916891
_cell_length_b                    28.814397
_cell_length_c                    32.15501
_cell_angle_alpha                 101.00377
_cell_angle_beta                  89.570439
_cell_angle_gamma                 90.450434
_cell_volume                      6290.54990495

loop_
_atom_site_label
_atom_site_type_symbol
_atom_type_description
_atom_site_fract_x
_atom_site_fract_y
_atom_site_fract_z
_atom_type_partial_charge
O1    O     O_R   0.494350 0.453170 0.452520 -0.548361
O2    O     O_R   0.820980 0.455850 0.538220 -0.542044
O3    O     O_R   0.994300 0.546830 0.547480 -0.544535
C1    C     C_R   0.651116 0.445221 0.551349 0.752840
O4    O     O_R   0.823860 0.447590 0.452270 -0.542103
O5    O     O_R   0.997200 0.538510 0.460920 -0.510190
C2    C     C_R   0.654897 0.435051 0.436319 0.723859
O6    O     O_R   0.491440 0.461490 0.539080 -0.513274
O7    O     O_3   0.661790 0.529840 0.502940 -0.353959
V1    V     V_3+5 0.935470 0.494460 0.499450 1.564383
O8    O     O_R   0.327090 0.544150 0.461780 -0.547025
C3    C     C_R   0.159193 0.553895 0.447955 0.744108
O9    O     O_R   0.324210 0.552410 0.547730 -0.535338
C4    C     C_R   0.155087 0.564298 0.564256 0.708433
V2    V     V_3+5 0.435840 0.505540 0.500550 1.566520
O10   O     O_3   0.159650 0.470160 0.497060 -0.353644
C5    C     C_R   0.230870 0.879186 0.882622 -0.126167
H1    H     H_    0.362837 0.893800 0.897847 0.126420
C6    C     C_R   0.245534 0.843273 0.846752 -0.053755
H2    H     H_    0.387417 0.831318 0.835076 0.126793
C7    C     C_R   0.078926 0.823122 0.825899 0.171621
C8    C     C_R   0.896954 0.840075 0.841248 -0.086857
H3    H     H_    0.766535 0.825215 0.825445 0.128724
C9    C     C_R   0.881896 0.875992 0.877327 -0.132161
H4    H     H_    0.739641 0.888191 0.888458 0.123794
C10   C     C_R   0.048898 0.896014 0.898531 -0.049795
C11   C     C_R   0.186714 0.741765 0.788871 0.374684
C12   C     C_R   0.202473 0.706890 0.751701 0.317050
C13   C     C_R   0.127789 0.715181 0.713083 -0.226988
C14   C     C_R   0.038678 0.758690 0.712012 0.387327
C15   C     C_R   0.021978 0.793026 0.749014 -0.239686
H5    H     H_    0.953351 0.826359 0.747584 0.192394
C16   C     C_R   0.095625 0.785183 0.787585 -0.145808
C17   C     C_R   0.294965 0.673133 0.645930 0.006464
C18   C     C_R   0.296302 0.635828 0.610529 -0.048297
H6    H     H_    0.416522 0.632934 0.588402 0.179539
C19   C     C_R   0.145089 0.602317 0.603023 -0.163681
C20   C     C_R   0.988512 0.606354 0.632458 -0.036067
C21   C     C_R   0.985264 0.644487 0.667094 0.037539
H7    H     H_    0.866854 0.647708 0.689744 0.174612
C22   C     C_R   0.136478 0.677585 0.674309 0.088679
C23   C     C_R   0.095422 0.660147 0.285445 0.599148
N1    N     N_R   0.133779 0.678640 0.326968 -0.564054
C24   C     C_R   0.166911 0.726148 0.340206 0.672812
C25   C     C_R   0.163682 0.757707 0.310951 -0.151200
C26   C     C_R   0.122412 0.738661 0.268030 -0.065166
C27   C     C_R   0.089553 0.689507 0.255291 -0.020092
C28   C     C_R   0.202758 0.807067 0.322721 0.411452
C29   C     C_R   0.191916 0.836833 0.292377 -0.162542
C30   C     C_R   0.143293 0.817700 0.249502 -0.154961
C31   C     C_R   0.113879 0.768375 0.237500 0.001975
C32   C     C_R   0.074675 0.748408 0.194693 -0.025047
C33   C     C_R   0.044982 0.699467 0.182722 -0.125911
C34   C     C_R   0.051447 0.670468 0.212619 -0.119821
C35   C     C_R   0.119269 0.846040 0.217996 0.582220
N2    N     N_R   0.086166 0.825669 0.176471 -0.544027
C36   C     C_R   0.065978 0.777718 0.164504 0.603530
O11   O     O_2   0.060974 0.613352 0.273379 -0.494028
O12   O     O_2   0.202800 0.742306 0.381558 -0.436572
O13   O     O_2   0.122630 0.893602 0.228706 -0.514914
O14   O     O_2   0.037925 0.758305 0.123344 -0.493167
H8    H     H_    0.014971 0.683319 0.150133 0.189476
H9    H     H_    0.026488 0.632920 0.202068 0.187197
C37   C     C_R   0.901698 0.854855 0.120943 -0.104797
H10   H     H_    0.781972 0.832166 0.126212 0.166739
C38   C     C_R   0.885897 0.883034 0.090032 0.348705
C39   C     C_R   0.040605 0.913437 0.083115 -0.144418
C40   C     C_R   0.209291 0.913609 0.107494 -0.157300
H11   H     H_    0.330348 0.936418 0.103423 0.184063
C41   C     C_R   0.224526 0.884790 0.137727 -0.044521
H12   H     H_    0.356758 0.885449 0.155660 0.149370
C42   C     C_R   0.070629 0.855305 0.144921 0.295092
C43   C     C_R   0.005020 0.651415 0.390203 -0.072458
H13   H     H_    0.894977 0.678405 0.393108 0.180069
C44   C     C_R   0.010232 0.621257 0.419558 0.374792
C45   C     C_R   0.152429 0.585467 0.416146 -0.208787
C46   C     C_R   0.288949 0.580892 0.382188 -0.109306
C47   C     C_R   0.282389 0.612402 0.353672 -0.040748
H14   H     H_    0.385660 0.609320 0.327800 0.179332
C48   C     C_R   0.140748 0.647396 0.357267 0.251593
C49   C     C_R   0.614194 0.223666 0.838193 0.613992
N3    N     N_R   0.597914 0.175683 0.824894 -0.552237
C50   C     C_R   0.590531 0.156311 0.782524 0.606804
C51   C     C_R   0.595826 0.185430 0.751873 -0.060908
C52   C     C_R   0.611161 0.234726 0.764941 -0.012620
C53   C     C_R   0.621796 0.253974 0.808521 -0.102741
C54   C     C_R   0.581079 0.166111 0.708660 -0.095915
C55   C     C_R   0.579643 0.194849 0.677998 -0.064746
C56   C     C_R   0.604010 0.244816 0.690656 -0.086893
C57   C     C_R   0.615515 0.264706 0.734549 -0.051933
C58   C     C_R   0.631096 0.314461 0.748244 -0.138092
C59   C     C_R   0.642783 0.333169 0.792459 0.419203
C60   C     C_R   0.637834 0.303003 0.821688 -0.159756
C61   C     C_R   0.622584 0.275709 0.661315 0.566820
N4    N     N_R   0.630082 0.323678 0.674929 -0.555627
C62   C     C_R   0.632963 0.343371 0.717166 0.659009
O15   O     O_2   0.620083 0.242154 0.880010 -0.508077
O16   O     O_2   0.578558 0.108940 0.769992 -0.492067
H15   H     H_    0.562797 0.128232 0.698656 0.210331
O17   O     O_2   0.640114 0.258292 0.619495 -0.512509
O18   O     O_2   0.636157 0.390839 0.728678 -0.446119
H16   H     H_    0.646809 0.318343 0.855122 0.212243
C63   C     C_R   0.796570 0.382200 0.639701 -0.044494
H17   H     H_    0.920968 0.381357 0.659785 0.149863
C64   C     C_R   0.800010 0.411375 0.609537 -0.189704
H18   H     H_    0.927317 0.432964 0.607467 0.171670
C65   C     C_R   0.641007 0.413229 0.582746 -0.134112
C66   C     C_R   0.477168 0.384476 0.586887 0.347685
C67   C     C_R   0.475091 0.355497 0.617345 -0.112964
H19   H     H_    0.349425 0.333649 0.620282 0.159400
C68   C     C_R   0.633937 0.354117 0.643922 0.299867
C69   C     C_R   0.414001 0.118305 0.857995 -0.114529
H20   H     H_    0.296158 0.120542 0.836476 0.166580
C70   C     C_R   0.396939 0.088159 0.887299 0.345756
C71   C     C_R   0.549909 0.084989 0.915776 -0.140237
C72   C     C_R   0.718360 0.112161 0.913217 -0.198978
H21   H     H_    0.838142 0.110653 0.934408 0.177207
C73   C     C_R   0.734324 0.141885 0.883586 -0.049014
H22   H     H_    0.865817 0.162178 0.882143 0.149340
C74   C     C_R   0.582112 0.145260 0.855777 0.291869
C75   C     C_R   0.710689 0.108294 0.130291 0.325343
C76   C     C_R   0.717004 0.145624 0.165838 0.386845
C77   C     C_R   0.560178 0.176858 0.175161 -0.056034
C78   C     C_R   0.397196 0.170210 0.149077 -0.125372
H23   H     H_    0.275279 0.193870 0.155960 0.182178
C79   C     C_R   0.390934 0.133715 0.113499 -0.152465
H24   H     H_    0.263525 0.130287 0.093746 0.178820
C80   C     C_R   0.547195 0.102538 0.103065 -0.199500
C81   C     C_R   0.455187 0.214770 0.248524 -0.042025
H25   H     H_    0.360010 0.184956 0.249468 0.193276
C82   C     C_R   0.470661 0.250881 0.284352 -0.149881
H26   H     H_    0.386261 0.248542 0.312391 0.199842
C83   C     C_R   0.595186 0.289628 0.284197 -0.022726
C84   C     C_R   0.702056 0.292099 0.247154 0.439905
C85   C     C_R   0.688049 0.255541 0.211601 -0.130079
H27   H     H_    0.772999 0.257409 0.183514 0.160276
C86   C     C_R   0.565809 0.216547 0.212115 0.057270
C87   C     C_R   0.772765 0.329120 0.349572 0.497379
C88   C     C_R   0.788932 0.364483 0.386030 -0.152196
H28   H     H_    0.914781 0.365206 0.406002 0.164707
C89   C     C_R   0.641961 0.397870 0.397336 -0.141046
C90   C     C_R   0.479864 0.395892 0.370957 -0.109850
H29   H     H_    0.366751 0.421874 0.379249 0.151923
C91   C     C_R   0.463413 0.361597 0.333549 -0.071471
C92   C     C_R   0.610526 0.327372 0.322839 -0.023553
O19   O     O_R   0.699170 0.038480 0.960880 -0.543315
O20   O     O_R   0.366800 0.052460 0.047690 -0.540749
O21   O     O_R   0.193520 0.961530 0.039110 -0.541020
C93   C     C_R   0.535825 0.064599 0.064144 0.758554
O22   O     O_R   0.369630 0.044100 0.961740 -0.517874
O23   O     O_R   0.196370 0.953120 0.952550 -0.539733
C94   C     C_R   0.538740 0.053556 0.947627 0.737878
O24   O     O_R   0.696320 0.046890 0.047450 -0.516036
O25   O     O_3   0.528890 0.970170 0.997080 -0.363049
V3    V     V_3+5 0.255190 0.005530 0.000540 1.567727
O26   O     O_R   0.866460 0.947530 0.952310 -0.544949
C95   C     C_R   0.035826 0.934615 0.936568 0.734756
O27   O     O_R   0.863630 0.955880 0.038270 -0.503834
C96   C     C_R   0.031611 0.945275 0.051485 0.808064
V4    V     V_3+5 0.754830 0.994440 0.999470 1.586883
O28   O     O_3   0.031000 0.029830 0.002920 -0.360173
C97   C     C_2   0.833393 0.569932 0.629757 0.446999
H30   H     H_    0.857225 0.534062 0.613061 0.024152
O29   O     O_2   0.677153 0.579376 0.647138 -0.509887
Cl1   Cl    Cl    0.280562 0.832821 0.374657 -0.400927
C98   C     C_2   0.244401 0.887540 0.305615 0.661917
H31   H     H_    0.354519 0.903110 0.288233 0.063536
O30   O     O_2   0.162472 0.912406 0.335454 -0.441917
Cl2   Cl    Cl    0.672185 0.876807 0.059917 -0.621312
Cl3   Cl    Cl    0.839084 0.631300 0.461184 -0.555269
C99   C     C_2   0.433268 0.542157 0.374396 0.506594
H32   H     H_    0.415854 0.511155 0.388549 0.011069
O31   O     O_2   0.573217 0.544108 0.351385 -0.504444
C100  C     C_2   0.536888 0.171202 0.633781 0.527624
H33   H     H_    0.451609 0.188732 0.613305 0.107572
O32   O     O_2   0.591595 0.130944 0.620108 -0.479126
Cl4   Cl    Cl    0.666908 0.393944 0.814382 -0.435273
Cl5   Cl    Cl    0.274345 0.381349 0.553595 -0.621565
Cl6   Cl    Cl    0.185021 0.053369 0.885028 -0.651875
Cl7   Cl    Cl    0.905974 0.068103 0.122337 -0.585988
Cl8   Cl    Cl    0.920137 0.152452 0.199656 -0.561120
Cl9   Cl    Cl    0.852054 0.340882 0.244020 -0.562486
Cl10  Cl    Cl    0.957012 0.286567 0.338750 -0.605280
C101  C     C_2   0.293903 0.362625 0.305634 0.554880
H34   H     H_    0.279841 0.337231 0.276224 0.096070
O33   O     O_2   0.167385 0.392175 0.315067 -0.489382
Cl11  Cl    Cl    0.273984 0.729926 0.837275 -0.465703
Cl12  Cl    Cl    0.315868 0.652557 0.753503 -0.461043
Cl13  Cl    Cl    0.948796 0.771601 0.664482 -0.503103
C102  C     C_2   0.459900 0.706942 0.652963 0.538009
H35   H     H_    0.461667 0.735741 0.680160 0.061912
O34   O     O_2   0.596761 0.703006 0.628354 -0.472469

loop_
_geom_bond_atom_site_label_1
_geom_bond_atom_site_label_2
_ccdc_geom_bond_type
O27   V4    S    
C35   N2    A    
C91   C101  S    
C102  H35   S    
C88   C89   A    
C43   H13   S    
C38   Cl2   S    
C61   O17   S    
N4    C62   A    
C51   C54   A    
N3    C74   S    
C1    O6    A    
C23   O11   S    
C69   C70   A    
C70   C71   A    
C77   C78   A    
C21   C22   A    
C46   C47   A    
C66   C67   A    
C64   C65   A    
C79   H24   S    
C50   C51   A    
C5    C10   A    
O23   C95   A    
C12   C13   A    
C6    C7    A    
C9    C10   A    
C81   H25   S    
C12   Cl12  S    
C52   C53   A    
C20   C21   A    
C47   C48   A    
C29   C98   S    
O19   V4    S    
C34   H9    S    
C24   O12   S    
V2    O10   S    
C55   C100  S    
C101  H34   S    
C10   C95   S    
C63   C68   A    
C17   C18   A    
C14   Cl13  S    
C56   C61   A    
C93   O24   A    
C100  H33   S    
C63   H17   S    
C67   C68   A    
C58   C62   A    
C73   H22   S    
O8    V2    S    
C76   Cl8   S    
C28   Cl1   S    
C18   H6    S    
C72   C73   A    
C40   H11   S    
N2    C42   S    
C50   O16   S    
C71   C94   S    
C102  O34   D    
C65   C66   A    
C15   C16   A    
C9    H4    S    
C41   H12   S    
O1    V2    S    
O21   V3    S    
O23   V3    S    
C13   C14   A    
O20   V3    S    
O7    V1    S    
C97   O29   D    
C49   C53   A    
C13   C22   S    
C38   C39   A    
C35   O13   S    
C98   O30   D    
C43   C44   A    
C98   H31   S    
C17   C22   A    
C84   Cl9   S    
C69   H20   S    
C81   C86   A    
C49   N3    A    
C75   Cl7   S    
C54   H15   S    
C76   C77   A    
C1    C65   S    
C39   C40   A    
C85   H27   S    
C62   O18   S    
C51   C52   A    
C75   C80   A    
C59   Cl4   S    
C58   C59   A    
C69   C74   A    
C47   H14   S    
N1    C48   S    
C33   C34   A    
C26   C31   A    
N3    C50   A    
V3    O28   S    
C31   C32   A    
O21   C96   A    
C37   C38   A    
O2    C1    A    
C44   C45   A    
O25   V4    S    
C19   C20   A    
C53   C60   A    
C83   C84   A    
C99   O31   D    
C33   H8    S    
C15   H5    S    
C17   C102  S    
C46   C99   S    
C44   Cl3   S    
C30   C31   A    
O25   V3    S    
C66   Cl5   S    
C63   C64   A    
C100  O32   D    
C11   Cl11  S    
C45   C46   A    
C87   Cl10  S    
C99   H32   S    
C75   C76   A    
O3    C4    A    
C27   C34   A    
O19   C94   A    
C28   C29   A    
C70   Cl6   S    
O6    V2    S    
O22   V3    S    
O9    V2    S    
N1    C24   A    
O27   C96   A    
O9    C4    A    
O22   C94   A    
C83   C92   S    
N2    C36   A    
C82   H26   S    
O2    V1    S    
C2    C89   S    
C90   C91   A    
C32   C33   A    
C18   C19   A    
C78   C79   A    
C97   H30   S    
C25   C28   A    
C85   C86   A    
C26   C27   A    
O26   C95   A    
C79   C80   A    
O20   C93   A    
O1    C2    A    
C24   C25   A    
C91   C92   A    
C82   C83   A    
C60   H16   S    
O5    V1    S    
C32   C36   A    
C41   C42   A    
C52   C57   A    
C36   O14   S    
C84   C85   A    
O26   V4    S    
C64   H18   S    
C77   C86   S    
C30   C35   A    
C5    H1    S    
V4    O28   S    
C6    H2    S    
C3    C45   S    
O7    V2    S    
O4    C2    A    
O4    V1    S    
O3    V1    S    
N4    C68   S    
C89   C90   A    
C37   H10   S    
C4    C19   S    
O5    C3    A    
C88   H28   S    
C57   C58   A    
C14   C15   A    
V1    O10   S    
C49   O15   S    
O24   V4    S    
C59   C60   A    
C5    C6    A    
C43   C48   A    
C101  O33   D    
C72   H21   S    
C8    C9    A    
C23   C27   A    
C37   C42   A    
C61   N4    A    
C73   C74   A    
C87   C88   A    
C21   H7    S    
C25   C26   A    
C80   C93   S    
C20   C97   S    
C7    C16   S    
C55   C56   A    
C54   C55   A    
C40   C41   A    
C29   C30   A    
C23   N1    A    
C67   H19   S    
C11   C16   A    
C90   H29   S    
C8    H3    S    
C39   C96   S    
C87   C92   A    
C81   C82   A    
C56   C57   A    
C7    C8    A    
C71   C72   A    
O8    C3    A    
C78   H23   S    
C11   C12   A    
