data_mof_unit_pretest_1852.cif
_audit_creation_date              2012-12-10T17:52:51-0500
_audit_creation_method            fapswitch 2.2
_symmetry_space_group_name_H-M    P1
_symmetry_Int_Tables_number       1
_space_group_crystal_system       triclinic
_cell_length_a                    18.75894
_cell_length_b                    18.639161
_cell_length_c                    18.619782
_cell_angle_alpha                 108.818812
_cell_angle_beta                  109.362304
_cell_angle_gamma                 109.431463
_cell_volume                      5060.53764681

loop_
_atom_site_label
_atom_site_type_symbol
_atom_type_description
_atom_site_fract_x
_atom_site_fract_y
_atom_site_fract_z
_atom_type_partial_charge
Br1   Br    Br    0.045470 0.911828 0.708521 -0.425142
Br2   Br    Br    0.569328 0.806914 0.093919 -0.455412
Br3   Br    Br    0.721724 0.915683 0.483427 -0.536633
Br4   Br    Br    0.690963 0.765218 0.776727 -0.454701
Br5   Br    Br    0.310314 0.580657 0.583090 -0.385921
Br6   Br    Br    0.312635 0.746805 0.720466 -0.396606
Br7   Br    Br    0.386011 0.189583 0.041983 -0.540191
Br8   Br    Br    0.197228 0.943145 0.886170 -0.340369
Br9   Br    Br    0.400063 0.426021 0.688287 -0.464100
C1    C     C_R   0.118901 0.119809 0.498307 0.889130
C2    C     C_R   0.314878 0.323368 0.577605 0.246569
C3    C     C_R   0.249659 0.259009 0.575374 -0.262466
C4    C     C_R   0.122410 0.001886 0.619523 0.981386
C5    C     C_R   0.184249 0.184934 0.496147 -0.172455
C6    C     C_R   0.734641 0.917006 0.250198 0.174325
C7    C     C_R   0.671637 0.917312 0.184715 0.210367
C8    C     C_R   0.686051 0.996950 0.185063 -0.189506
C9    C     C_R   0.764838 0.075166 0.248597 0.199687
C10   C     C_R   0.825802 0.073677 0.313669 -0.300805
C11   C     C_R   0.810577 0.996016 0.314616 -0.130156
C12   C     C_R   0.276565 0.045077 0.705031 -0.075815
C13   C     C_R   0.820232 0.743859 0.498494 -0.204436
C14   C     C_R   0.756806 0.677611 0.497331 0.190672
C15   C     C_R   0.684563 0.685714 0.496903 -0.161334
C16   C     C_R   0.878359 0.880221 0.498572 0.956900
C17   C     C_R   0.673651 0.756179 0.493554 0.150274
C18   C     C_R   0.737145 0.820825 0.492760 0.186944
C19   C     C_R   0.810673 0.814453 0.497106 -0.150886
C20   C     C_R   0.499642 0.880218 0.879397 0.956802
C21   C     C_R   0.380817 0.008747 0.887433 0.984778
C22   C     C_R   0.500912 0.119251 0.121500 0.982292
C23   C     C_R   0.188947 0.001046 0.684898 -0.184477
C24   C     C_R   0.620068 0.998397 0.119181 0.912875
C25   C     C_R   0.500068 0.620450 0.620340 0.993128
C26   C     C_R   0.380344 0.380101 0.500603 0.967003
C27   C     C_R   0.499655 0.379181 0.379707 0.904726
C28   C     C_R   0.878184 0.998040 0.380324 0.891278
C29   C     C_R   0.619656 0.620000 0.499193 0.887537
C30   C     C_R   0.579728 0.819331 0.824593 0.138064
C31   C     C_R   0.579956 0.755746 0.760313 0.218885
C32   C     C_R   0.500236 0.686845 0.686711 -0.286010
C33   C     C_R   0.420510 0.681195 0.677064 0.234937
C34   C     C_R   0.166122 0.971144 0.738366 0.192521
C35   C     C_R   0.420736 0.747113 0.739359 0.214874
C36   C     C_R   0.500052 0.814597 0.813423 -0.259708
C37   C     C_R   0.457713 0.228165 0.162845 0.166824
C38   C     C_R   0.463722 0.297198 0.227171 0.134465
C39   C     C_R   0.496929 0.309685 0.312973 -0.192234
C40   C     C_R   0.302036 0.067190 0.647414 0.084048
C41   C     C_R   0.523830 0.253022 0.333615 0.148235
C42   C     C_R   0.527649 0.191101 0.270452 0.073011
C43   C     C_R   0.497684 0.182307 0.186691 -0.169909
C44   C     C_R   0.389016 0.127682 0.679151 0.164717
C45   C     C_R   0.230252 0.980917 0.811060 0.272678
C46   C     C_R   0.449743 0.167804 0.767621 0.133518
C47   C     C_R   0.425200 0.141853 0.823062 0.150189
C48   C     C_R   0.341111 0.070516 0.787696 -0.023680
C49   C     C_3   0.736121 0.779770 0.195692 -0.638891
C50   C     C_3   0.750674 0.204629 0.284573 -0.731650
C51   C     C_3   0.840142 0.597054 0.503140 -0.708952
C52   C     C_3   0.606650 0.803777 0.575560 -0.676667
C53   C     C_3   0.713420 0.958066 0.897440 -0.627756
C54   C     C_3   0.237444 0.935891 0.512423 -0.664281
C55   C     C_3   0.507102 0.429624 0.217896 -0.713699
C56   C     C_R   0.317610 0.023882 0.831509 -0.171978
C57   C     C_3   0.468153 0.214444 0.423797 -0.729136
C58   C     C_3   0.494792 0.054254 0.273670 -0.682158
C59   C     C_3   0.461654 0.110095 0.592340 -0.730383
C60   C     C_3   0.549428 0.310927 0.793891 -0.672114
C61   C     C_3   0.475348 0.277948 0.946898 -0.681131
C62   C     C_3   0.033945 0.102779 0.302434 -0.730617
C63   C     C_3   0.202881 0.247713 0.285626 -0.647026
C64   C     C_R   0.183087 0.173962 0.416966 0.161982
C65   C     C_R   0.249782 0.238058 0.419176 0.114399
C66   C     C_R   0.314710 0.312644 0.499514 -0.177322
H1    H     H_    0.250134 0.266744 0.635824 0.198677
H2    H     H_    0.678988 0.167118 0.248452 0.248532
H3    H     H_    0.770819 0.265699 0.280487 0.234508
H4    H     H_    0.705482 0.543263 0.449388 0.208363
H5    H     H_    0.834535 0.537080 0.506335 0.239101
H6    H     H_    0.897686 0.653845 0.564589 0.274264
H7    H     H_    0.848566 0.594432 0.446203 0.221775
H8    H     H_    0.572204 0.781667 0.449111 0.266623
H9    H     H_    0.657353 0.873483 0.611850 0.260523
H10   H     H_    0.623712 0.771305 0.613662 0.246185
H11   H     H_    0.543707 0.799446 0.567337 0.229726
H12   H     H_    0.886391 0.133254 0.362886 0.162333
H13   H     H_    0.657714 0.901933 0.959985 0.229181
H14   H     H_    0.712754 0.017560 0.934971 0.221783
H15   H     H_    0.691051 0.945176 0.829012 0.238178
H16   H     H_    0.781201 0.970399 0.926295 0.253169
H17   H     H_    0.249087 0.054036 0.522785 0.218946
H18   H     H_    0.217865 0.895173 0.542070 0.255032
H19   H     H_    0.300559 0.944602 0.516936 0.224112
H20   H     H_    0.187420 0.901186 0.442634 0.223097
H21   H     H_    0.381075 0.325726 0.148742 0.272211
H22   H     H_    0.530035 0.408459 0.171246 0.236384
H23   H     H_    0.877490 0.741336 0.499978 0.185114
H24   H     H_    0.562242 0.466338 0.285612 0.218302
H25   H     H_    0.482985 0.473813 0.205895 0.243777
H26   H     H_    0.591294 0.242098 0.441029 0.226570
H27   H     H_    0.431645 0.143342 0.378045 0.227343
H28   H     H_    0.424437 0.242018 0.409613 0.233517
H29   H     H_    0.489346 0.225236 0.491352 0.235239
H30   H     H_    0.617325 0.165858 0.345343 0.218054
H31   H     H_    0.501958 0.057865 0.336582 0.221148
H32   H     H_    0.505471 0.000974 0.240141 0.258514
H33   H     H_    0.427435 0.038358 0.232139 0.250975
H34   H     H_    0.741208 0.843304 0.314131 0.234908
H35   H     H_    0.377245 0.162634 0.580028 0.213805
H36   H     H_    0.521270 0.160928 0.602074 0.243807
H37   H     H_    0.419673 0.062335 0.521729 0.220029
H38   H     H_    0.480733 0.076085 0.628063 0.247769
H39   H     H_    0.585596 0.240509 0.853331 0.211383
H40   H     H_    0.593246 0.368925 0.859759 0.218392
H41   H     H_    0.487241 0.311146 0.765275 0.259102
H42   H     H_    0.580102 0.316329 0.752759 0.252546
H43   H     H_    0.540227 0.207373 0.939930 0.227660
H44   H     H_    0.512457 0.313867 0.019191 0.245651
H45   H     H_    0.797035 0.781633 0.234058 0.224643
H46   H     H_    0.505397 0.320353 0.923364 0.225986
H47   H     H_    0.407269 0.264387 0.925109 0.274078
H48   H     H_    0.107668 0.041514 0.326453 0.247458
H49   H     H_    0.003670 0.094733 0.343286 0.226235
H50   H     H_    0.988347 0.048708 0.234572 0.241388
H51   H     H_    0.045257 0.165266 0.302644 0.239749
H52   H     H_    0.250242 0.166374 0.308033 0.231164
H53   H     H_    0.138699 0.189351 0.235469 0.233413
H54   H     H_    0.236340 0.271355 0.252079 0.239827
H55   H     H_    0.192980 0.299839 0.323262 0.248948
H56   H     H_    0.741870 0.797288 0.145355 0.247031
H57   H     H_    0.681677 0.712294 0.162263 0.251524
H58   H     H_    0.850314 0.192778 0.267710 0.226065
H59   H     H_    0.775156 0.221463 0.354165 0.229079
N1    N     N_2   0.719763 0.837959 0.253013 -0.269657
N2    N     N_2   0.416199 0.150580 0.622960 -0.291582
N3    N     N_2   0.536631 0.232330 0.799873 -0.301090
N4    N     N_2   0.477723 0.197310 0.915036 -0.251167
N5    N     N_2   0.114750 0.101269 0.334594 -0.302290
N6    N     N_2   0.255148 0.225468 0.341778 -0.315506
N7    N     N_2   0.785281 0.154753 0.245824 -0.276220
N8    N     N_2   0.762221 0.601575 0.493720 -0.279363
N9    N     N_2   0.598658 0.761180 0.491001 -0.282384
N10   N     N_2   0.659546 0.885241 0.902396 -0.261304
N11   N     N_2   0.243983 0.019546 0.555952 -0.280190
N12   N     N_2   0.437826 0.354907 0.206359 -0.265043
N13   N     N_2   0.543373 0.256467 0.416064 -0.269684
N14   N     N_2   0.558750 0.135605 0.289322 -0.334682
O1    O     O_R   0.091590 0.143330 0.551700 -0.617212
O2    O     O_R   0.551730 0.591680 0.643420 -0.560682
O3    O     O_R   0.356670 0.408480 0.448390 -0.599584
O4    O     O_R   0.091620 0.039900 0.448280 -0.640988
O5    O     O_R   0.460120 0.408460 0.551810 -0.606977
O6    O     O_R   0.448270 0.408490 0.356760 -0.602651
O7    O     O_R   0.551720 0.408480 0.460170 -0.610686
O8    O     O_R   0.539880 0.591710 0.448370 -0.609767
O9    O     O_R   0.643330 0.591700 0.551790 -0.590817
O10   O     O_R   0.091610 0.051730 0.643330 -0.599857
O11   O     O_R   0.091640 0.948310 0.539920 -0.598129
O12   O     O_R   0.551760 0.960180 0.908450 -0.643119
O13   O     O_R   0.908380 0.960100 0.551720 -0.554418
O14   O     O_R   0.908410 0.856670 0.448300 -0.648093
O15   O     O_R   0.908360 0.051690 0.460080 -0.596443
O16   O     O_R   0.908390 0.948270 0.356670 -0.633393
O17   O     O_R   0.448330 0.856720 0.908450 -0.557625
O18   O     O_R   0.356660 0.948290 0.908410 -0.561559
O19   O     O_R   0.460090 0.051750 0.908420 -0.637684
O20   O     O_R   0.448250 0.039900 0.091630 -0.600305
O21   O     O_R   0.551680 0.143360 0.091630 -0.629579
O22   O     O_R   0.539910 0.948330 0.091670 -0.591499
O23   O     O_R   0.643340 0.051790 0.091670 -0.614611
O24   O     O_R   0.448280 0.591700 0.540000 -0.596754
Zn1   Zn    Zn3+2 0.999980 0.069060 0.569050 1.053438
Zn2   Zn    Zn3+2 0.000020 0.930940 0.430950 0.943340
Zn3   Zn    Zn3+2 0.430940 0.930960 0.000040 1.100376
Zn4   Zn    Zn3+2 0.569060 0.069120 0.000040 0.944776
Zn5   Zn    Zn3+2 0.430920 0.500100 0.431040 1.016020
Zn6   Zn    Zn3+2 0.569080 0.500080 0.569140 1.058448

loop_
_geom_bond_atom_site_label_1
_geom_bond_atom_site_label_2
_ccdc_geom_bond_type
O24   Zn5   S    
C41   N13   S    
O20   Zn3   S    
Br5   C33   S    
C33   C35   A    
C60   H41   S    
C13   H23   S    
C37   C43   A    
H34   N1    S    
C64   C65   A    
C57   H27   S    
C4    C23   S    
H35   N2    S    
C10   C11   A    
C29   O8    A    
C22   C43   S    
C46   C47   A    
C50   H2    S    
C12   C40   A    
C25   O2    A    
C27   O6    A    
C63   H54   S    
C45   C56   A    
C16   C19   S    
C51   N8    S    
C25   C32   S    
C54   H19   S    
C26   C66   S    
O18   Zn3   S    
C8    C24   S    
C63   H53   S    
C15   C17   A    
C21   O19   A    
C10   H12   S    
C1    O1    A    
C59   H37   S    
C58   H33   S    
O3    Zn5   S    
H4    N8    S    
C6    N1    S    
C6    C7    A    
C53   H14   S    
H48   N5    S    
O13   Zn1   S    
C47   C48   A    
C9    C10   A    
C32   C33   A    
H39   N3    S    
C20   O17   A    
C23   C34   A    
C34   C45   A    
C1    O4    A    
C37   C38   A    
C51   H7    S    
C52   N9    S    
C55   H24   S    
C51   H5    S    
Br4   C31   S    
C16   O13   A    
C7    C8    A    
O11   Zn2   S    
C15   C29   S    
C14   C15   A    
C62   H51   S    
O16   Zn2   S    
Br2   C7    S    
C61   H44   S    
O7    Zn6   S    
C59   H38   S    
C28   O15   A    
O4    Zn2   S    
C39   C41   A    
C38   N12   S    
Br6   C35   S    
O12   Zn4   S    
C44   N2    S    
C26   O3    A    
C24   O22   A    
C50   H3    S    
Br1   C34   S    
C8    C9    A    
C20   O12   A    
O22   Zn3   S    
C44   C46   A    
C60   N3    S    
C6    C11   A    
C12   C23   A    
C65   C66   A    
C16   O14   A    
C42   C43   A    
C5    C64   A    
C57   H29   S    
C62   H49   S    
C59   N2    S    
C54   H20   S    
C21   O18   A    
C1    C5    S    
Br8   C45   S    
C30   C31   A    
C62   N5    S    
C64   N5    S    
H30   N14   S    
C65   N6    S    
C51   H6    S    
C20   C36   S    
C59   H36   S    
Br7   C37   S    
C12   C48   A    
C47   N4    S    
O8    Zn5   S    
C61   H47   S    
O10   Zn1   S    
C38   C39   A    
C55   H22   S    
C49   H56   S    
C48   C56   A    
C53   H16   S    
C49   H45   S    
C41   C42   A    
C17   C18   A    
C40   N11   S    
C14   N8    S    
C22   O20   A    
Br9   C2    S    
C57   N13   S    
C52   H10   S    
C28   O16   A    
C31   C32   A    
C3    C5    A    
C61   N4    S    
C3    H1    S    
H52   N6    S    
C63   N6    S    
C17   N9    S    
C24   O23   A    
C4    O10   A    
C58   N14   S    
C25   O24   A    
C35   C36   A    
O5    Zn6   S    
C60   H40   S    
C55   N12   S    
H17   N11   S    
C57   H28   S    
C9    N7    S    
C26   O5    A    
C29   O9    A    
C53   N10   S    
C52   H9    S    
C2    C3    A    
C58   H31   S    
C63   H55   S    
O14   Zn2   S    
C49   N1    S    
O17   Zn3   S    
C22   O21   A    
O23   Zn4   S    
C54   H18   S    
C50   H59   S    
H58   N7    S    
C46   N3    S    
C30   C36   A    
Br3   C18   S    
C2    C66   A    
O2    Zn6   S    
H8    N9    S    
C11   C28   S    
C61   H46   S    
C58   H32   S    
C42   N14   S    
C40   C44   A    
C53   H15   S    
C60   H42   S    
O21   Zn4   S    
H13   N10   S    
C27   C39   S    
O1    Zn1   S    
O9    Zn6   S    
C21   C56   S    
C52   H11   S    
C49   H57   S    
C55   H25   S    
C4    O11   A    
C30   N10   S    
C50   N7    S    
H26   N13   S    
O6    Zn5   S    
C18   C19   A    
C13   C14   A    
C62   H50   S    
C13   C19   A    
H21   N12   S    
H43   N4    S    
C54   N11   S    
C27   O7    A    
O19   Zn4   S    
O15   Zn1   S    
